100
# Created by libgraph from Fullerene (http://tinyurl.com/fullerenes)
C  3.013819  -2.185640  2.679880
C  3.225710  -3.231606  1.687270
C  4.211612  -2.731450  0.746247
C  4.848624  -1.551466  1.336641
C  4.130385  -1.240463  2.575786
C  5.270799  -0.511643  0.482247
C  5.104587  0.883420  0.893555
C  4.462008  1.187627  2.109805
C  3.941461  0.104279  2.952016
C  3.737222  -2.665411  -0.571056
C  3.960851  -1.496852  -1.311537
C  4.953125  -0.586844  -0.942289
C  2.072860  -3.802857  1.121775
C  2.142225  -4.458630  -0.104865
C  2.936388  -3.719588  -1.074925
C  1.720208  -1.657367  2.780462
C  0.615828  -2.430923  2.406164
C  0.821575  -3.600750  1.691788
C  2.618083  0.509723  3.422821
C  1.525088  -0.323458  3.127743
C  3.493664  2.284062  2.157449
C  2.444362  1.920697  3.101066
C  4.768860  1.661983  -0.302824
C  3.662602  2.520267  -0.267008
C  3.064278  2.847772  0.946013
C  4.876636  0.777826  -1.459567
C  3.090548  -1.195940  -2.353075
C  3.231127  -0.037641  -3.130253
C  4.078140  1.030472  -2.597059
C  2.043696  -3.377038  -2.174603
C  1.984100  -2.020271  -2.510567
C  0.885491  -4.861299  -0.740765
C  0.766553  -4.069259  -1.964679
C  -0.237304  -4.478183  1.436049
C  -0.258762  -5.026306  0.080981
C  -0.687234  -1.975318  2.610994
C  -1.781935  -2.801119  2.359422
C  -1.601577  -4.055730  1.765730
C  0.226148  0.193998  3.045210
C  -0.881744  -0.634650  2.915678
C  1.168291  2.330421  2.697593
C  0.056467  1.556646  2.916969
C  1.918692  3.646313  0.916560
C  0.980814  3.442799  1.906156
C  3.066768  2.976559  -1.452976
C  2.147256  4.051000  -1.449833
C  1.662095  4.501292  -0.151375
C  3.292621  2.266125  -2.640117
C  2.004167  0.568263  -3.647601
C  2.076142  2.008867  -3.397691
C  0.795576  -1.414571  -2.882401
C  0.815280  -0.088746  -3.297755
C  -0.422844  -3.336293  -2.103770
C  -0.414509  -2.073528  -2.686789
C  -1.567667  -4.688595  -0.479414
C  -1.616963  -3.800069  -1.552192
C  -2.453892  -4.325583  0.618374
C  -3.083224  -2.324264  2.566725
C  -3.983659  -2.614010  1.457957
C  -3.459127  -3.358811  0.380827
C  -2.170633  -0.090790  2.937956
C  -3.291114  -0.926157  2.944849
C  -1.209873  2.132478  2.822282
C  -2.329090  1.296988  2.821393
C  -0.177762  4.215178  2.003702
C  -1.330460  3.516638  2.589156
C  0.272375  4.955555  -0.305465
C  -0.628825  4.894208  0.792181
C  0.983880  3.906362  -2.312696
C  -0.187722  4.417115  -1.582226
C  0.908110  2.642559  -2.921915
C  -0.371434  0.614265  -3.187103
C  -0.310625  1.964115  -2.920795
C  -1.624095  -1.416871  -2.937890
C  -1.601677  -0.044166  -3.182075
C  -2.856790  -3.290867  -1.970588
C  -2.835286  -2.105968  -2.821000
C  -3.863604  -3.073524  -0.938363
C  -4.712828  -1.384656  1.152502
C  -4.664653  -0.893575  -0.160386
C  -4.521781  -1.796927  -1.223691
C  -4.480112  -0.449965  2.250468
C  -3.588875  1.844717  2.575265
C  -4.594285  0.936926  2.026619
C  -2.516304  3.935306  1.849960
C  -3.641895  3.079303  1.802242
C  -2.017131  4.460956  0.586211
C  -1.328030  3.600072  -1.559147
C  -2.279202  3.696577  -0.550132
C  -1.469417  2.573834  -2.477297
C  -2.795921  0.679175  -3.286755
C  -2.727546  2.067219  -2.832646
C  -4.019695  -1.309249  -2.505546
C  -4.007671  0.082091  -2.735316
C  -4.692411  0.490771  -0.400966
C  -4.491421  0.991760  -1.697869
C  -4.852007  1.393102  0.664805
C  -4.220634  2.704290  0.511676
C  -3.441820  2.914651  -0.634111
C  -3.774126  2.258261  -1.834255
