100
# Created by libgraph from Fullerene (http://tinyurl.com/fullerenes)
C  4.606629  -0.802694  1.645913
C  4.110329  -0.053847  2.799896
C  4.053654  1.351056  2.396502
C  4.701256  1.482708  1.100962
C  5.158176  0.159225  0.689757
C  3.987806  2.278483  0.193907
C  3.822666  1.849614  -1.130052
C  4.608953  0.810244  -1.642418
C  5.160110  -0.150520  -0.684918
C  2.846610  2.049487  2.542497
C  2.722545  3.329109  1.981719
C  3.348279  3.438983  0.672631
C  3.059223  -0.607052  3.559338
C  1.921786  0.250742  3.883908
C  1.747074  1.424470  3.128449
C  3.821348  -1.843414  1.133073
C  2.795288  -2.398267  1.903847
C  2.513578  -1.913223  3.189965
C  4.706016  -1.474736  -1.096284
C  3.992081  -2.271051  -0.190165
C  4.114425  0.060309  -2.796423
C  4.059957  -1.344747  -2.392793
C  2.795006  2.402791  -1.901307
C  2.514459  1.917025  -3.187425
C  3.062994  0.611724  -3.556670
C  2.396674  4.098988  -0.210340
C  1.972851  3.378855  -1.327745
C  1.401950  3.949806  1.883240
C  1.351560  4.687070  0.626876
C  0.466761  1.927742  2.851619
C  0.298302  3.148833  2.194081
C  0.753866  -0.609344  4.054653
C  -0.461340  -0.164114  3.525513
C  -0.645143  1.137420  3.111179
C  1.122342  -1.957189  3.629126
C  1.974004  -3.376356  1.330343
C  0.680988  -3.533112  1.817673
C  0.233585  -2.617607  2.761123
C  3.355751  -3.432963  -0.668703
C  2.404324  -4.094433  0.213824
C  2.854498  -2.045860  -2.540242
C  2.731861  -3.325502  -1.978802
C  1.927908  -0.248481  -3.882833
C  1.754665  -1.423283  -3.128016
C  1.123262  1.958702  -3.626989
C  0.758475  0.609325  -4.053477
C  0.678511  3.535056  -1.815419
C  0.233122  2.618526  -2.758766
C  0.071338  4.944431  0.085415
C  -0.187731  4.499078  -1.279214
C  -0.977434  3.509343  1.736634
C  -1.119908  4.575260  0.844871
C  -1.941771  1.569250  2.814123
C  -2.100188  2.741427  2.075289
C  -1.485996  -1.047956  3.247218
C  -2.821901  -0.666424  3.336497
C  -3.049336  0.766562  3.154486
C  -1.106426  -2.254670  2.702810
C  -0.182444  -4.498261  1.279937
C  -1.622332  -4.218475  1.387639
C  -2.018449  -3.006453  1.973564
C  1.361265  -4.685002  -0.624472
C  0.080202  -4.943603  -0.084358
C  1.412287  -3.949052  -1.881663
C  0.475091  -1.929839  -2.852869
C  0.307575  -3.150538  -2.194848
C  -0.454320  0.160158  -3.523401
C  -0.637459  -1.141629  -3.113069
C  -1.105893  2.252570  -2.699101
C  -1.475415  1.040911  -3.237158
C  -1.627452  4.217535  -1.389321
C  -2.020886  3.004492  -1.974601
C  -2.231597  4.513268  -0.093793
C  -3.363841  3.084628  1.582466
C  -3.385248  3.806516  0.314540
C  -4.261036  0.922696  2.353068
C  -4.391964  2.047921  1.518198
C  -3.778456  -1.386566  2.503052
C  -4.591186  -0.394547  1.808999
C  -3.288291  -2.462289  1.735917
C  -2.223907  -4.515448  0.091282
C  -3.377907  -3.810451  -0.318824
C  -4.025416  -2.917462  0.639400
C  -1.110703  -4.577115  -0.845822
C  -0.968559  -3.512123  -1.738600
C  -1.934241  -1.573736  -2.817756
C  -2.092175  -2.745776  -2.078961
C  -2.813382  0.663197  -3.336445
C  -3.041696  -0.770412  -3.158452
C  -3.290173  2.458826  -1.739848
C  -3.775328  1.381759  -2.507931
C  -4.030311  2.913262  -0.645008
C  -4.715069  1.862371  0.105436
C  -4.693098  -0.562758  0.418536
C  -4.692880  0.558106  -0.426152
C  -4.710880  -1.867940  -0.112401
C  -3.356066  -3.089648  -1.587248
C  -4.385238  -2.053724  -1.524524
C  -4.254579  -0.928466  -2.359246
C  -4.588214  0.388300  -1.816117
