100
# Created by libgraph from Fullerene (http://tinyurl.com/fullerenes)
C  3.943392  0.591182  2.543755
C  3.778521  2.004398  2.204463
C  4.468452  2.237277  0.950001
C  5.220589  1.027954  0.611290
C  4.985983  0.045419  1.674129
C  5.262670  0.615032  -0.733575
C  5.163166  -0.809718  -1.056677
C  5.061706  -1.769816  -0.030538
C  4.973462  -1.330205  1.362913
C  3.642521  2.840209  -0.010541
C  3.543187  2.281045  -1.290694
C  4.490235  1.351225  -1.739100
C  2.485001  2.555471  2.277193
C  2.222370  3.806897  1.701961
C  2.826019  3.922642  0.383983
C  2.786697  -0.180427  2.701637
C  1.576574  0.445021  2.982866
C  1.428289  1.798224  2.769986
C  3.965252  -2.174685  2.003105
C  2.798606  -1.557080  2.455847
C  4.127339  -2.889112  -0.178358
C  3.771202  -3.345229  1.156963
C  4.262231  -0.928470  -2.198163
C  3.117837  -1.719909  -2.053193
C  3.080564  -2.738944  -1.091088
C  4.094119  0.402692  -2.774578
C  2.426053  2.582981  -2.077794
C  2.205381  1.926263  -3.298371
C  2.948394  0.690593  -3.544119
C  1.777267  4.345454  -0.535171
C  1.466675  3.471095  -1.578602
C  0.832751  4.271222  1.595649
C  0.654572  4.843134  0.265102
C  0.150608  2.329724  2.881834
C  -0.163228  3.397537  2.051049
C  0.456476  -0.299494  3.318671
C  -0.659844  0.277706  3.939476
C  -0.817838  1.708800  3.691243
C  1.602790  -2.283936  2.545092
C  0.424286  -1.596868  2.843568
C  2.591569  -4.117642  1.276725
C  1.574855  -3.645442  2.209641
C  1.940722  -3.545110  -0.957337
C  1.849681  -4.476534  0.075547
C  1.967400  -1.432841  -2.793245
C  0.801652  -2.151653  -2.513191
C  0.835668  -3.323953  -1.773519
C  1.956527  -0.367837  -3.710288
C  0.817804  1.699809  -3.696252
C  0.659141  0.266933  -3.936080
C  0.162134  3.385483  -2.056402
C  -0.151523  2.321064  -2.891911
C  -0.654498  4.842397  -0.276010
C  -0.831616  4.264690  -1.604208
C  -1.467076  3.480048  1.571960
C  -1.778547  4.348960  0.525543
C  -2.205372  1.933471  3.292516
C  -2.423900  2.587931  2.069642
C  -1.957513  -0.358171  3.713112
C  -2.949184  0.699550  3.542741
C  -0.803998  -2.139870  2.518796
C  -1.971461  -1.425290  2.800239
C  0.278983  -4.174867  1.759021
C  -0.831549  -3.314110  1.780246
C  0.510588  -4.872927  0.495106
C  -0.277957  -4.181519  -1.752768
C  -0.509728  -4.873891  -0.485139
C  -0.426782  -1.613086  -2.843072
C  -1.606942  -2.296192  -2.546481
C  -1.575267  -3.654247  -2.204350
C  -0.454443  -0.313382  -3.308145
C  -1.424594  1.782915  -2.769867
C  -1.574509  0.430438  -2.982594
C  -2.220638  3.799813  -1.710075
C  -2.481007  2.544422  -2.283675
C  -2.825245  3.921858  -0.393418
C  -3.540841  2.283582  1.282773
C  -3.640274  2.841348  0.001556
C  -4.095113  0.409932  2.773847
C  -4.489120  1.355862  1.735448
C  -3.121394  -1.714279  2.060384
C  -4.265227  -0.923006  2.201132
C  -1.939971  -3.538453  0.966596
C  -3.080073  -2.734740  1.100639
C  -1.847571  -4.473765  -0.065043
C  -2.590817  -4.120585  -1.267163
C  -2.802300  -1.566580  -2.456858
C  -3.967813  -2.179692  -1.999542
C  -3.770656  -3.347404  -1.148964
C  -2.789652  -0.189240  -2.703341
C  -3.777816  2.001701  -2.208137
C  -3.943586  0.588187  -2.545838
C  -4.468286  2.236078  -0.954088
C  -5.262487  0.617601  0.732311
C  -5.220224  1.027729  -0.613095
C  -5.164061  -0.806500  1.058200
C  -4.125897  -2.887474  0.185322
C  -5.061111  -1.768745  0.034254
C  -4.973539  -1.331754  -1.360110
C  -4.985871  0.043677  -1.674307
