100
# Created by libgraph from Fullerene (http://tinyurl.com/fullerenes)
C  3.681828  -2.148417  2.018403
C  3.352170  -3.339441  1.245229
C  3.917363  -3.160743  -0.078514
C  4.829448  -2.013802  -0.030114
C  4.780535  -1.472662  1.330217
C  4.881131  -1.137699  -1.132153
C  5.070886  0.301159  -0.908272
C  5.167151  0.809177  0.404107
C  4.976931  -0.094076  1.539868
C  2.939638  -3.231831  -1.081072
C  2.851088  -2.202053  -2.019845
C  3.914410  -1.301107  -2.220882
C  2.014664  -3.767271  1.267605
C  1.552747  -4.662242  0.305837
C  1.975948  -4.266226  -1.028343
C  2.623207  -1.345439  2.461551
C  1.339746  -1.890891  2.559265
C  1.100622  -3.191333  2.138948
C  4.082204  0.586498  2.469698
C  2.824039  0.019613  2.692568
C  4.509951  2.077253  0.751652
C  4.114664  2.008127  2.149292
C  4.234398  1.016855  -1.869087
C  3.399148  2.043490  -1.397535
C  3.569159  2.599059  -0.136731
C  3.592618  0.030555  -2.733388
C  1.626540  -1.997043  -2.660690
C  1.392610  -0.809284  -3.332585
C  2.243102  0.239758  -3.038753
C  0.770345  -4.112198  -1.838934
C  0.583198  -2.895885  -2.507044
C  0.122505  -4.972877  0.273069
C  -0.373178  -4.549908  -1.036634
C  -0.092420  -3.843084  2.473288
C  -0.652561  -4.695997  1.424112
C  0.265350  -1.100211  2.944098
C  -1.012929  -1.658064  3.064344
C  -1.191547  -3.047840  3.027334
C  1.739344  0.832208  3.038056
C  0.456342  0.271387  3.059531
C  3.057544  2.845751  2.569133
C  1.929440  2.210408  3.240467
C  2.687169  3.609606  0.270356
C  2.478780  3.820254  1.638768
C  2.286722  2.450101  -2.131903
C  1.736941  3.731260  -1.994430
C  1.932361  4.330012  -0.679479
C  1.648638  1.478165  -2.878834
C  0.258839  -0.634962  -4.145361
C  -0.288735  0.720773  -4.139734
C  0.347869  1.671086  -3.317132
C  -0.687512  -2.488168  -2.918306
C  -0.852925  -1.565184  -3.958062
C  -1.522195  -3.740632  -1.067418
C  -1.771169  -2.924026  -2.169133
C  -2.034663  -4.261467  1.238167
C  -2.380516  -3.650437  0.029170
C  -2.430804  -3.546444  2.444744
C  -2.127978  -0.808901  3.095305
C  -3.416967  -1.334053  2.992560
C  -3.531122  -2.663512  2.398288
C  -0.654998  1.097373  3.047629
C  -1.946749  0.576983  3.107690
C  0.759990  3.065907  3.045508
C  -0.467550  2.441753  2.810042
C  1.107775  4.083174  2.058606
C  0.630075  4.807456  -0.222122
C  0.186530  4.332275  1.020220
C  0.332422  3.917257  -2.372158
C  -0.305813  4.747544  -1.352238
C  -0.343215  2.763444  -2.791688
C  -1.732378  0.613336  -3.953817
C  -2.289031  1.391507  -2.929894
C  -1.702012  2.602338  -2.563309
C  -2.099984  -0.802923  -4.010070
C  -3.065071  -2.471904  -2.434790
C  -3.202307  -1.268234  -3.256151
C  -3.534850  -2.855630  -0.060129
C  -3.974466  -2.355097  -1.300511
C  -4.199396  -2.469890  1.113530
C  -4.438076  -0.490533  2.382702
C  -4.753170  -1.117242  1.099453
C  -3.047167  1.450602  3.048308
C  -4.265070  0.909109  2.456232
C  -1.507275  3.111228  2.191236
C  -2.835027  2.783922  2.473696
C  -1.162666  3.992388  1.179808
C  -1.692099  4.568096  -1.114444
C  -2.124742  4.423400  0.267915
C  -2.443241  3.565926  -1.872301
C  -3.364487  0.932885  -2.177296
C  -3.767408  1.689052  -1.072843
C  -3.533776  3.074259  -1.030558
C  -3.954617  -0.302937  -2.457665
C  -4.529286  -1.007842  -1.315351
C  -4.561162  -0.360877  -0.068284
C  -4.482440  1.680696  1.240478
C  -4.303161  1.013591  0.025672
C  -3.813255  2.973201  1.408745
C  -3.412960  3.717262  0.273488
