100
# Created by libgraph from Fullerene (http://tinyurl.com/fullerenes)
C  3.349372  -3.040559  1.845005
C  3.316449  -3.886484  0.663437
C  3.923144  -3.070325  -0.380887
C  4.852175  -2.150849  0.270159
C  4.457391  -2.092905  1.678821
C  5.205319  -0.974489  -0.420844
C  5.274398  0.298723  0.298137
C  4.866052  0.367461  1.644974
C  4.413496  -0.847315  2.333790
C  3.047957  -2.539133  -1.332135
C  3.376697  -1.340282  -1.985495
C  4.587669  -0.697199  -1.715346
C  2.109120  -4.576763  0.412055
C  1.469601  -4.340163  -0.874647
C  1.800350  -3.144743  -1.534873
C  2.120038  -2.540202  2.285662
C  0.956079  -3.290957  2.079318
C  1.021852  -4.494977  1.378945
C  3.200290  -0.509192  3.075145
C  2.034796  -1.252330  2.813298
C  4.000313  1.464450  2.077948
C  3.063689  0.941432  3.064460
C  4.846362  1.351531  -0.631113
C  3.849420  2.249365  -0.231163
C  3.454153  2.311170  1.100633
C  4.670871  0.741129  -1.944024
C  2.443263  -0.726254  -2.825380
C  2.723780  0.499908  -3.457744
C  3.773406  1.326001  -2.863815
C  0.845835  -2.474771  -2.300787
C  1.169199  -1.283344  -2.923602
C  0.037689  -4.634845  -0.712872
C  -0.883529  -3.761889  -1.308554
C  -0.475654  -2.909943  -2.320522
C  -0.189934  -4.930215  0.699830
C  -0.293620  -2.784922  2.454018
C  -1.443954  -3.579377  2.355215
C  -1.425631  -4.577005  1.287475
C  0.764504  -0.678473  2.960219
C  -0.390515  -1.437948  2.798285
C  1.774276  1.466141  2.934047
C  0.653418  0.692454  3.113384
C  2.381463  3.143344  1.421582
C  1.562259  2.741249  2.453694
C  3.151459  3.018712  -1.176801
C  2.348563  4.114864  -0.785835
C  2.065484  4.248802  0.637380
C  3.157672  2.609432  -2.517345
C  1.591598  1.375606  -3.773534
C  1.851697  2.678683  -3.162697
C  0.149910  -0.554602  -3.503639
C  0.336557  0.806005  -3.547097
C  -1.410631  -2.409310  -3.240071
C  -1.066694  -1.140696  -3.872152
C  -2.187832  -3.634528  -0.831956
C  -3.107324  -2.833618  -1.527729
C  -2.803298  -2.333594  -2.806358
C  -2.519553  -4.211474  0.395754
C  -2.750123  -2.915039  2.309701
C  -3.496878  -3.479589  1.190228
C  -1.639468  -0.809788  2.838124
C  -2.769362  -1.521746  2.441928
C  -0.582717  1.322518  3.267939
C  -1.742618  0.558060  3.140708
C  0.480766  3.508056  2.884855
C  -0.642121  2.723489  3.410313
C  0.713075  4.800282  0.795146
C  -0.053126  4.496634  1.952065
C  1.085762  4.286861  -1.492082
C  0.061425  4.655961  -0.503649
C  0.806587  3.257727  -2.407468
C  -0.743881  1.557388  -3.147122
C  -0.487082  2.725361  -2.461640
C  -2.231511  -0.256284  -3.775631
C  -2.040613  1.048442  -3.282798
C  -3.319504  -1.012051  -3.160580
C  -4.300549  -2.450255  -0.902598
C  -4.807582  -1.117344  -1.232245
C  -4.136854  -0.363151  -2.212247
C  -4.434552  -2.645143  0.540267
C  -3.889649  -0.796148  2.047984
C  -4.760059  -1.334821  1.102947
C  -2.990681  1.190336  3.190664
C  -4.082935  0.514546  2.497826
C  -1.871231  3.369214  2.963081
C  -3.052331  2.604326  2.834872
C  -1.485436  4.201734  1.831332
C  -1.145874  3.943466  -0.545462
C  -1.953003  3.806066  0.578240
C  -1.507267  3.245601  -1.686952
C  -3.137079  1.787980  -2.814393
C  -2.847311  2.952027  -1.975232
C  -4.230399  1.043499  -2.199211
C  -5.144092  -0.445150  0.018322
C  -4.796099  0.910498  0.180530
C  -4.583883  1.717978  -0.950213
C  -4.584811  1.427238  1.477050
C  -3.832405  2.672057  1.597716
C  -3.189078  3.155212  0.452628
C  -3.736365  2.903168  -0.818602
