100
# Created by libgraph from Fullerene (http://tinyurl.com/fullerenes)
C  3.543867  -3.331412  0.192057
C  3.359084  -3.612482  -1.235832
C  3.765462  -2.296424  -1.632853
C  4.872863  -1.719128  -0.845785
C  4.529322  -2.215198  0.457221
C  4.855217  -0.280558  -0.871750
C  4.908997  0.617189  0.064576
C  4.461776  0.251702  1.334348
C  4.292150  -1.226086  1.507577
C  2.697828  -1.548885  -1.306934
C  2.749306  -0.339390  -0.820769
C  3.838121  0.149835  -1.626111
C  1.908851  -3.837583  -1.220939
C  1.136320  -2.895312  -1.470118
C  1.477880  -1.735162  -1.395568
C  2.371196  -3.319503  0.886341
C  1.366435  -4.332993  0.734079
C  1.148048  -4.773327  -0.584174
C  3.082347  -1.294727  2.244980
C  2.133139  -2.224205  1.705496
C  3.171979  0.891464  1.624053
C  2.543939  0.040306  2.514067
C  4.832273  1.879531  -0.414067
C  3.405182  1.709656  -0.355257
C  2.515765  1.196383  0.567477
C  3.641614  1.594884  -2.031269
C  4.304101  2.622229  -1.512516
C  1.875657  0.722681  -0.765720
C  2.298703  1.745884  -1.610697
C  0.484224  -0.951256  -1.427179
C  0.741966  0.290998  -1.154857
C  -0.136716  -2.931308  -1.698447
C  -1.070387  -2.268674  -0.944676
C  -0.636406  -1.346984  -1.900394
C  -0.384659  -4.747961  -0.904314
C  -1.004390  -3.901634  -1.878991
C  0.070556  -4.124173  1.310595
C  -1.016134  -4.414666  0.397461
C  0.811145  -2.078726  2.111492
C  -0.150744  -2.965620  1.997874
C  1.035048  0.117134  2.246434
C  0.349680  -0.903953  2.595195
C  1.142030  1.105221  0.661462
C  0.253577  0.918122  1.528026
C  3.473300  2.868773  0.425479
C  2.310746  2.946715  1.013686
C  1.486720  2.137721  1.465951
C  3.381010  3.600495  -0.776276
C  1.516174  2.771884  -1.641420
C  2.011110  3.829270  -1.047252
C  -0.005752  1.087473  -1.974280
C  0.219180  2.361715  -1.760614
C  -1.097577  -0.755991  -3.074986
C  -0.670633  0.586473  -3.079977
C  -1.908856  -1.378363  -1.385456
C  -2.930193  -1.114619  -2.133253
C  -2.522527  -0.634445  -3.284422
C  -2.106905  -2.839430  -1.670711
C  -2.227777  -3.587443  0.502727
C  -2.922718  -3.032071  -0.644866
C  -1.419919  -2.531813  2.468446
C  -2.525174  -2.801746  1.651721
C  -0.967199  -0.597086  3.076450
C  -1.396940  -1.657714  3.463516
C  -1.169609  1.419980  1.973634
C  -1.515129  0.078421  1.659143
C  0.537782  3.092755  2.115065
C  -0.475768  2.394418  2.795291
C  1.418731  3.827688  0.898118
C  0.450296  3.088426  0.101924
C  -0.221442  3.812882  1.117349
C  0.874890  4.326345  -0.239423
C  -0.737135  3.261828  -1.685183
C  -0.579836  3.686703  -0.364107
C  -1.690292  1.558128  -3.460769
C  -1.721940  2.606017  -2.435184
C  -2.980242  0.694928  -3.532900
C  -4.106032  -1.145807  -1.524715
C  -4.933177  -0.069004  -1.720746
C  -4.172747  0.915704  -2.706839
C  -4.068735  -2.090435  -0.504955
C  -3.685551  -1.990551  1.853411
C  -4.648327  -1.843875  0.746490
C  -2.112298  -0.487642  3.119822
C  -3.363897  -0.689522  2.476897
C  -1.076022  0.487254  2.483301
C  -1.608814  3.075533  2.746052
C  -2.033046  1.716366  2.338038
C  -1.643773  3.807281  1.521505
C  -0.752009  2.368454  0.204522
C  -2.030132  2.624279  -0.332947
C  -2.628560  3.217139  0.690300
C  -2.596229  2.375645  -1.600757
C  -3.902240  2.064899  -1.804783
C  -5.108775  0.591092  -0.395398
C  -4.490889  1.927810  -0.472914
C  -5.030808  -0.306205  0.761886
C  -4.293939  0.332915  1.998555
C  -3.507525  1.473533  1.760675
C  -3.669063  2.300937  0.753584
