100
# Created by libgraph from Fullerene (http://tinyurl.com/fullerenes)
C  4.622838  0.696182  1.350279
C  3.980007  1.865730  1.948173
C  3.918323  2.909741  0.941834
C  4.595693  2.420873  -0.261479
C  5.118211  1.081807  0.030428
C  4.028814  2.696300  -1.520014
C  4.018464  1.654379  -2.554801
C  4.595800  0.390986  -2.303272
C  5.179041  0.111295  -0.990715
C  2.641877  3.484369  0.845337
C  2.026253  3.610398  -0.399791
C  2.752493  3.416655  -1.593475
C  2.788874  1.667783  2.672242
C  2.025454  2.777184  3.073269
C  1.943818  3.789523  2.031471
C  3.962459  -0.532676  1.449952
C  3.020469  -0.732365  2.442119
C  2.294771  0.375047  2.852167
C  4.853964  -1.279737  -0.661476
C  4.135269  -1.538243  0.507601
C  3.896708  -0.827677  -2.725719
C  4.343644  -1.917304  -1.866737
C  2.711786  1.696934  -3.204588
C  1.940210  0.522290  -3.214735
C  2.526959  -0.724108  -2.970046
C  2.022134  2.900505  -2.748840
C  0.636539  3.797315  -0.442744
C  -0.029319  3.556802  -1.626907
C  0.643670  2.799247  -2.552572
C  0.546180  4.216195  1.932690
C  -0.103130  4.070862  0.702737
C  0.666882  2.569279  3.576260
C  -0.161792  3.666745  3.085829
C  0.996408  0.176805  3.286835
C  0.154549  1.275363  3.445633
C  2.730721  -2.026323  2.896345
C  1.409355  -2.210247  3.490847
C  0.520440  -1.131165  3.401464
C  3.485570  -2.768014  0.697976
C  2.954210  -3.119354  1.956694
C  3.515043  -3.057948  -1.747798
C  3.271609  -3.599711  -0.408861
C  1.703650  -1.853479  -2.844715
C  2.228204  -3.088776  -2.440791
C  0.547185  0.593135  -3.331260
C  -0.222791  -0.535135  -3.477645
C  0.322350  -1.701807  -2.988190
C  -0.095602  1.781460  -3.102744
C  -1.368050  3.914360  -1.814617
C  -2.130223  3.026215  -2.700407
C  -1.481058  1.898447  -3.234339
C  -1.505778  4.074912  0.622522
C  -2.166128  4.156413  -0.618996
C  -1.557897  3.452293  3.001627
C  -2.252013  3.887906  1.789895
C  -1.215122  1.065833  3.324789
C  -2.109307  2.138549  3.333573
C  -0.851339  -1.338814  3.295842
C  -1.661721  -0.227408  3.057337
C  0.909319  -3.523866  3.083663
C  -0.485352  -3.741570  2.982047
C  -1.381241  -2.634507  3.304992
C  1.764580  -3.966683  1.979804
C  1.986136  -4.294272  -0.424073
C  1.176371  -4.204891  0.731472
C  1.340759  -3.982817  -1.693924
C  -0.537866  -2.640704  -2.461298
C  -0.003303  -3.600787  -1.626194
C  -1.544636  -0.448552  -3.936226
C  -2.442936  -1.503745  -3.465843
C  -1.920145  -2.511437  -2.634076
C  -2.231147  0.836800  -3.772853
C  -3.418053  2.759482  -2.069730
C  -3.938641  1.450442  -2.140878
C  -3.535418  0.579990  -3.173341
C  -3.429513  3.435217  -0.770896
C  -3.460105  3.078797  1.644858
C  -3.902595  2.731428  0.349431
C  -3.357916  1.978709  2.592992
C  -2.875429  -0.404479  2.412851
C  -3.664741  0.703377  2.096600
C  -2.618767  -2.818041  2.543752
C  -3.212961  -1.681227  1.971245
C  -1.024931  -4.356626  1.774295
C  -2.433855  -3.973899  1.667158
C  -0.225335  -4.243861  0.637077
C  -0.818565  -4.035625  -0.600910
C  -2.790971  -3.309325  -1.873784
C  -2.202242  -4.119703  -0.799331
C  -3.667704  -0.867170  -2.984570
C  -4.219691  -1.330685  -1.775011
C  -3.981349  -2.657816  -1.347000
C  -4.812619  0.995242  -1.142277
C  -4.944669  -0.449112  -0.949459
C  -4.758618  1.624767  0.176405
C  -4.701388  0.562801  1.171017
C  -4.064620  -1.789239  0.873625
C  -4.869223  -0.712613  0.480707
C  -3.040243  -3.973324  0.388706
C  -4.026007  -2.936299  0.083487
