100
# Created by libgraph from Fullerene (http://tinyurl.com/fullerenes)
C  4.337296  -0.328259  2.127203
C  5.071383  0.051839  0.930268
C  4.923534  -1.068831  0.013539
C  4.625197  -2.257940  0.814769
C  4.279502  -1.791848  2.158706
C  3.901234  -3.310927  0.221724
C  2.899217  -4.041079  1.007369
C  2.572337  -3.605660  2.312117
C  3.252433  -2.433184  2.877744
C  4.165839  -0.822758  -1.135704
C  3.356931  -1.831399  -1.658665
C  3.368062  -3.134984  -1.129883
C  4.903480  1.366715  0.449348
C  4.644742  1.546640  -0.977381
C  4.136491  0.463257  -1.703985
C  3.162215  0.374487  2.412135
C  2.989278  1.674637  1.916197
C  3.989546  2.270845  1.138934
C  2.239050  -1.594635  3.515254
C  2.116770  -0.254487  3.091120
C  1.165790  -3.539795  2.729572
C  0.997911  -2.358794  3.569736
C  1.818766  -4.433185  0.097235
C  0.493776  -4.171391  0.477213
C  0.187805  -3.733608  1.748610
C  2.143936  -3.932356  -1.231080
C  2.437861  -1.483280  -2.644691
C  1.249443  -2.205758  -2.689128
C  1.080415  -3.342725  -1.926814
C  3.523866  0.693658  -2.949380
C  2.646861  -0.354556  -3.460157
C  3.957537  2.825811  -1.148979
C  2.956974  2.943352  -2.137851
C  2.863039  1.983283  -3.165739
C  3.587299  3.294589  0.179724
C  1.766742  2.337244  2.096417
C  1.503571  3.516160  1.410487
C  2.299848  3.825748  0.311847
C  0.898818  0.429048  3.227199
C  0.757783  1.753556  2.850555
C  -0.175682  -1.629175  3.335900
C  -0.227974  -0.280330  3.572041
C  -1.122779  -3.301990  1.939167
C  -1.275855  -2.159411  2.696164
C  -0.555670  -4.176680  -0.451636
C  -1.882194  -4.413822  -0.072529
C  -2.194949  -3.893528  1.251792
C  -0.239055  -3.740454  -1.721628
C  0.155999  -1.668831  -3.343557
C  -1.033171  -2.373635  -3.562705
C  -1.214312  -3.542338  -2.708551
C  1.431475  0.284325  -3.958885
C  0.231443  -0.316562  -3.568774
C  1.543011  1.723476  -3.735014
C  1.992892  3.975891  -2.041549
C  0.688250  3.700715  -2.630603
C  0.482461  2.398211  -3.108324
C  1.749750  4.564841  -0.731844
C  0.392592  4.301200  1.744114
C  -0.278943  4.957055  0.623283
C  0.341282  4.947908  -0.649678
C  -0.448120  2.427927  3.097670
C  -0.640755  3.728351  2.612857
C  -1.425649  0.325244  3.961626
C  -1.518552  1.765004  3.727624
C  -2.462987  -1.435309  2.655359
C  -2.651337  -0.301196  3.465309
C  -3.409914  -3.084287  1.146185
C  -3.379971  -1.777547  1.667390
C  -2.956075  -4.011354  -0.985095
C  -3.947191  -3.262830  -0.203227
C  -2.622374  -3.587951  -2.291982
C  -2.263320  -1.590917  -3.508315
C  -3.287641  -2.410807  -2.864485
C  -0.892007  0.408413  -3.228269
C  -2.120012  -0.252682  -3.092428
C  -0.727839  1.733980  -2.858376
C  -0.337127  4.290376  -1.765725
C  -1.454311  3.516659  -1.431043
C  -1.730247  2.336225  -2.109740
C  -1.690801  4.588401  0.706439
C  -2.243774  3.846982  -0.334369
C  -1.941564  4.012816  2.020242
C  -2.835689  2.037177  3.155753
C  -2.916766  2.992713  2.121628
C  -3.514111  0.755089  2.948038
C  -4.178782  -0.762223  1.139993
C  -4.130260  0.525784  1.703965
C  -4.657401  -2.204550  -0.802161
C  -4.939500  -1.007211  -0.007530
C  -4.305911  -1.751236  -2.148885
C  -3.157776  0.394466  -2.415254
C  -4.343153  -0.287033  -2.125615
C  -2.962537  1.693774  -1.926026
C  -3.539074  3.334783  -0.198014
C  -3.953910  2.310686  -1.151127
C  -3.918217  2.880468  1.133280
C  -4.623137  1.610170  0.969037
C  -5.070862  0.110309  -0.930543
C  -4.882497  1.425044  -0.456961
