100
# Created by libgraph from Fullerene (http://tinyurl.com/fullerenes)
C  5.047211  -0.140924  0.916073
C  5.137825  0.920812  -0.070572
C  4.926389  0.300521  -1.367448
C  5.037216  -1.153121  -1.209299
C  5.154283  -1.428953  0.222679
C  4.247062  -1.987783  -2.025113
C  3.690587  -3.231951  -1.477332
C  3.857192  -3.534727  -0.110762
C  4.526854  -2.569888  0.764584
C  3.841141  0.830801  -2.066139
C  2.909574  -0.033231  -2.640715
C  3.228989  -1.381374  -2.882193
C  4.422106  2.104633  0.218420
C  3.992084  2.927892  -0.837807
C  3.644074  2.222486  -2.066300
C  4.052841  0.008204  1.882973
C  3.812438  1.270872  2.440717
C  4.066558  2.399516  1.547893
C  3.670906  -2.380212  1.931270
C  3.235921  -1.078236  2.190681
C  2.742469  -4.104493  0.653252
C  2.671471  -3.441110  1.941594
C  2.375592  -3.443991  -2.085445
C  1.286732  -3.778416  -1.250391
C  1.497874  -4.265218  0.034274
C  2.137108  -2.342051  -3.011180
C  1.612126  0.439820  -2.851420
C  0.587480  -0.464076  -3.079713
C  0.850683  -1.811364  -2.986484
C  2.349780  2.721863  -2.518821
C  1.317054  1.790033  -2.687818
C  2.961361  3.939730  -0.599173
C  2.023263  3.895540  -1.718092
C  3.033255  3.408714  1.786922
C  2.421236  4.056784  0.695651
C  2.533621  1.504340  3.099043
C  2.114177  2.870192  2.782431
C  1.944615  -0.826295  2.650779
C  1.583059  0.481873  2.974227
C  1.342922  -3.143917  2.288003
C  0.983420  -1.844948  2.652624
C  0.417412  -4.766455  0.783197
C  0.365340  -4.134691  2.090701
C  -0.033332  -3.492614  -1.632602
C  -1.129981  -3.940991  -0.903495
C  -0.942289  -4.713286  0.244272
C  -0.230971  -2.592884  -2.658446
C  -0.735709  -0.041350  -3.233400
C  -1.744164  -0.951527  -3.596896
C  -1.479840  -2.340783  -3.230394
C  -0.026819  2.168924  -2.568161
C  -1.048827  1.264259  -2.863234
C  0.682059  4.106046  -1.372416
C  -0.334837  3.405303  -2.012795
C  1.203112  4.750414  0.891041
C  0.369189  4.925008  -0.288614
C  0.747626  3.091994  2.545791
C  0.324463  4.290356  1.956630
C  0.230752  0.784138  3.027445
C  -0.179567  2.076086  2.769852
C  -0.363152  -1.526688  2.876970
C  -0.722244  -0.217310  3.191236
C  -1.028834  -3.807133  2.381304
C  -1.360342  -2.475723  2.655003
C  -1.844049  -4.454662  1.357698
C  -2.410983  -3.489661  -1.257515
C  -3.457029  -3.592614  -0.332982
C  -3.117210  -3.923752  1.052544
C  -2.631477  -2.847143  -2.490392
C  -3.114024  -0.643189  -3.204194
C  -3.661419  -1.808304  -2.510690
C  -2.380674  1.622054  -2.652020
C  -3.352659  0.615000  -2.629777
C  -1.649010  3.883046  -1.976651
C  -2.717716  2.950460  -2.352780
C  -1.033478  4.967420  0.136358
C  -2.059076  4.567752  -0.756279
C  -1.061862  4.398284  1.478915
C  -1.532521  2.293377  2.577950
C  -1.890546  3.287309  1.682304
C  -2.045246  0.102361  3.534957
C  -2.483336  1.445248  3.161496
C  -2.693669  -2.055704  2.592968
C  -3.095863  -0.833476  3.151260
C  -3.612466  -2.818815  1.868983
C  -4.447049  -2.518988  -0.309101
C  -4.561018  -2.053113  1.068767
C  -4.391021  -1.555162  -1.331485
C  -4.538680  0.832277  -1.927002
C  -5.004557  -0.302273  -1.138185
C  -3.803292  3.122990  -1.391798
C  -4.659285  2.035079  -1.108698
C  -3.213610  3.818091  -0.260158
C  -3.018421  3.068493  0.898725
C  -3.745316  1.323131  2.437004
C  -3.880490  2.010560  1.217539
C  -4.135536  -0.085652  2.448817
C  -4.638052  -0.661025  1.265420
C  -5.149053  0.154163  0.240035
C  -4.819897  1.576993  0.273102
