100
# Created by libgraph from Fullerene (http://tinyurl.com/fullerenes)
C  4.484227  -0.727864  1.396262
C  4.471001  0.685547  1.747484
C  4.779178  1.441857  0.547017
C  5.160397  0.495610  -0.501341
C  5.109375  -0.847734  0.080020
C  4.699925  0.714200  -1.813420
C  4.271850  -0.429530  -2.629513
C  4.348024  -1.740921  -2.116006
C  4.783623  -1.948424  -0.733904
C  3.827228  2.434261  0.282948
C  3.233040  2.514369  -0.976960
C  3.780684  1.827637  -2.078088
C  3.388622  1.167297  2.503324
C  3.195734  2.548017  2.614346
C  3.386287  3.240191  1.348627
C  3.321947  -1.474379  1.621151
C  2.344438  -0.998891  2.497830
C  2.440620  0.291092  3.031109
C  3.921535  -2.985332  -0.171787
C  3.082252  -2.643575  0.893675
C  3.249587  -2.684524  -2.356482
C  3.280080  -3.669077  -1.285089
C  3.052735  -0.037537  -3.329134
C  1.902551  -0.834996  -3.164358
C  2.004422  -2.146353  -2.688180
C  2.864605  1.396666  -3.127824
C  2.003207  3.180607  -1.092674
C  1.172433  2.865727  -2.156316
C  1.546561  1.824256  -2.976304
C  2.234758  4.107427  1.129915
C  1.545094  4.028871  -0.086538
C  1.974091  3.054219  3.239774
C  1.356233  3.976299  2.284995
C  1.525231  0.734667  3.999185
C  1.166246  2.153986  3.965890
C  1.205242  -1.764510  2.740979
C  0.159168  -1.211655  3.460119
C  0.291480  -0.022211  4.187232
C  1.942164  -3.415130  1.154505
C  1.045490  -3.024982  2.150910
C  2.108001  -4.421122  -1.049163
C  1.649825  -4.504862  0.329366
C  0.835975  -2.877943  -2.422440
C  0.903278  -4.146980  -1.825344
C  0.628960  -0.277271  -3.345220
C  -0.520203  -1.028152  -3.208041
C  -0.410218  -2.279012  -2.629532
C  0.507609  1.084556  -3.476830
C  -0.088995  3.459456  -2.308835
C  -0.992926  2.977883  -3.278954
C  -0.658904  1.706937  -3.918630
C  0.312604  4.693424  -0.212506
C  -0.497212  4.447756  -1.407911
C  -0.009530  3.838876  1.989756
C  -0.557355  4.603708  0.948894
C  -0.283354  2.224517  3.784786
C  -0.780461  2.870957  2.639758
C  -0.829720  0.904943  4.085564
C  -1.085746  -1.794909  3.291525
C  -2.158560  -0.932043  3.200259
C  -1.881740  0.428008  3.290139
C  -0.064468  -3.836732  2.460246
C  -1.208982  -3.167826  3.082057
C  0.257699  -4.952145  0.300550
C  -0.583501  -4.707057  1.410765
C  -0.244228  -4.583382  -1.018767
C  -1.549144  -2.855790  -2.100921
C  -1.373542  -3.758398  -1.066390
C  -1.770665  -0.460666  -3.492656
C  -2.946790  -1.171806  -3.217106
C  -2.823349  -2.439028  -2.499218
C  -1.857890  0.871107  -3.936739
C  -2.405589  2.935968  -2.914703
C  -2.946119  1.644354  -3.345658
C  -1.892841  4.351978  -0.988797
C  -2.736874  3.420599  -1.636837
C  -1.901563  4.308070  0.467337
C  -2.004423  2.484015  2.067457
C  -2.586164  3.235485  1.042162
C  -2.579740  1.268900  2.436689
C  -3.430778  -1.403978  2.889969
C  -4.259361  -0.475475  2.123264
C  -3.772928  0.817893  1.857374
C  -2.427891  -3.611124  2.403115
C  -3.530067  -2.726649  2.276019
C  -1.977782  -4.301004  1.202881
C  -2.282133  -3.698976  -0.017239
C  -3.826035  -2.454335  -1.439308
C  -3.438032  -2.920801  -0.168759
C  -4.040119  -0.414489  -2.622413
C  -4.544961  -1.181351  -1.483354
C  -3.836461  0.973177  -2.483866
C  -3.868089  2.918096  -0.963302
C  -4.468268  1.674336  -1.445729
C  -3.815254  2.854290  0.492218
C  -4.435024  1.600387  0.906332
C  -4.747012  -1.187077  0.948909
C  -4.759601  -0.491257  -0.278161
C  -4.910473  0.908198  -0.282709
C  -4.154251  -2.521411  0.965268
