100
# Created by libgraph from Fullerene (http://tinyurl.com/fullerenes)
C  3.920795  -2.226282  1.439005
C  4.560540  -1.626630  0.270759
C  4.974243  -0.272527  0.623980
C  4.500358  -0.014266  1.976245
C  4.031917  -1.276407  2.544379
C  3.699007  1.122442  2.099400
C  2.517851  1.055087  2.838551
C  2.313626  0.021363  3.769831
C  3.017352  -1.237427  3.523338
C  4.780172  0.732123  -0.348164
C  4.604776  2.075671  0.052428
C  4.038748  2.277620  1.380686
C  3.946562  -1.808370  -0.974652
C  4.322270  -0.996674  -2.049319
C  4.670186  0.380110  -1.710110
C  2.686637  -2.870098  1.271035
C  2.236852  -3.222447  -0.004834
C  2.903818  -2.728947  -1.131956
C  2.013240  -2.301312  3.520547
C  1.849022  -3.078190  2.367917
C  0.940865  -0.308287  4.150360
C  0.764399  -1.753878  4.023828
C  1.496862  1.966216  2.547165
C  0.203908  1.693299  2.969716
C  -0.054009  0.485507  3.584868
C  3.040094  3.342629  1.287045
C  1.739895  3.069976  1.731605
C  3.906125  2.983436  -0.849328
C  3.154428  3.939709  -0.040198
C  3.843598  1.251891  -2.536584
C  3.245750  2.348425  -1.899013
C  3.472857  -0.968926  -3.236462
C  2.981470  0.402328  -3.352238
C  2.469574  -3.080698  -2.415111
C  2.584695  -2.046552  -3.439004
C  1.065670  -3.982982  -0.145979
C  0.472226  -4.103726  -1.406765
C  1.153253  -3.693131  -2.564617
C  0.766036  -3.970221  2.292011
C  0.444046  -4.532942  0.985376
C  -0.413448  -2.210263  3.385704
C  -0.478449  -3.524776  2.902989
C  -1.335865  0.009822  3.452107
C  -1.456130  -1.320100  3.106734
C  -0.861211  2.544943  2.654983
C  -2.154768  2.274258  3.136468
C  -2.419823  0.886119  3.510347
C  0.655757  3.829925  1.272954
C  -0.638700  3.587652  1.754556
C  2.016659  4.548166  -0.616816
C  0.857909  4.749801  0.241069
C  1.946169  2.745876  -2.218864
C  1.482112  4.019936  -1.869195
C  1.598742  0.588689  -3.243230
C  1.086997  1.803453  -2.775271
C  1.219950  -1.730202  -3.838928
C  0.725072  -0.470402  -3.488502
C  0.383171  -2.873679  -3.487016
C  -0.862272  -4.524965  -1.519250
C  -1.635009  -3.713284  -2.448127
C  -0.926108  -2.655437  -3.035670
C  -1.006618  -4.718967  0.935002
C  -1.664458  -4.722962  -0.313326
C  -1.573232  -3.905038  2.007365
C  -2.543681  -1.695588  2.329951
C  -2.492079  -2.909207  1.647218
C  -3.619889  0.446696  2.809758
C  -3.595633  -0.787185  2.131825
C  -3.292766  2.750446  2.358947
C  -4.100252  1.576376  2.020066
C  -1.717066  4.318044  1.242761
C  -3.058413  3.744029  1.388997
C  -0.287229  4.974950  -0.632099
C  -1.595456  4.819351  -0.118977
C  0.035780  4.269867  -1.865431
C  -0.291479  2.025158  -2.745211
C  -0.803095  3.205849  -2.213705
C  -0.637732  -0.278464  -3.261289
C  -1.159010  1.001505  -3.121736
C  -1.464593  -1.367326  -3.033097
C  -2.929144  -3.417939  -1.843220
C  -3.433035  -2.108359  -1.902560
C  -2.791179  -1.141521  -2.668225
C  -2.901892  -3.954588  -0.491630
C  -3.283436  -3.054388  0.510644
C  -4.572779  -1.043757  1.160287
C  -4.387352  -2.209181  0.302385
C  -4.407813  1.323603  0.672764
C  -4.973685  0.085133  0.325262
C  -3.573822  3.526960  0.040340
C  -4.075067  2.260971  -0.314424
C  -2.608540  4.099468  -0.890525
C  -2.163729  3.253716  -1.909379
C  -2.540195  1.212759  -3.232953
C  -3.066153  2.377482  -2.531859
C  -3.421835  0.079103  -2.953803
C  -4.500238  -1.749699  -1.071531
C  -4.949775  -0.355291  -1.068230
C  -4.472676  0.538794  -2.047716
C  -4.151224  1.916759  -1.675428
