100
# Created by libgraph from Fullerene (http://tinyurl.com/fullerenes)
C  2.918979  -1.571704  3.081661
C  3.162478  -2.746592  2.252351
C  4.170876  -2.390900  1.261856
C  4.578676  -1.014286  1.530694
C  3.983470  -0.610148  2.800826
C  4.537791  -0.124744  0.448967
C  4.192429  1.220470  0.657933
C  4.099806  1.718738  1.964128
C  3.760756  0.763409  3.016798
C  3.899289  -2.774081  -0.067724
C  4.371990  -1.988887  -1.139557
C  4.771954  -0.614327  -0.842769
C  2.041642  -3.445554  1.786964
C  2.178865  -4.347914  0.734070
C  3.076606  -3.895851  -0.321628
C  1.609051  -1.078803  3.140977
C  0.526546  -1.919538  2.850623
C  0.768519  -3.168872  2.283006
C  2.460860  1.167116  3.534311
C  1.380403  0.277387  3.370068
C  3.320831  2.930461  2.201252
C  2.230297  2.543098  3.098086
C  3.868833  2.043797  -0.432965
C  3.504115  3.384104  -0.233170
C  3.064382  3.785490  1.104008
C  4.381157  0.225406  -1.967925
C  3.837681  1.496982  -1.721130
C  3.582526  -1.964877  -2.365744
C  3.601998  -0.595215  -2.881002
C  2.296528  -3.847181  -1.550403
C  2.364752  -2.648009  -2.278797
C  0.966911  -4.880714  0.112665
C  0.971362  -4.404974  -1.269343
C  -0.273347  -4.085758  2.106175
C  -0.236994  -4.840468  0.855258
C  -0.791600  -1.470134  3.002484
C  -1.865882  -2.332247  2.771699
C  -1.649621  -3.635273  2.303482
C  0.063700  0.751639  3.301698
C  -1.021673  -0.114767  3.237856
C  0.939118  2.835166  2.667816
C  -0.141065  2.104970  3.120700
C  1.724251  4.351645  0.957177
C  0.681910  3.747757  1.669036
C  2.619613  4.022294  -1.209173
C  1.449945  4.498583  -0.467944
C  3.176162  2.166598  -2.764908
C  2.452108  3.403387  -2.468826
C  2.398073  -0.027909  -3.323050
C  2.348638  1.341732  -3.636059
C  1.205090  -2.072531  -2.805207
C  1.227626  -0.786203  -3.317433
C  -0.141942  -3.665549  -1.680748
C  -0.019587  -2.718613  -2.683654
C  -1.471025  -4.509408  0.145971
C  -1.364141  -3.762538  -1.028702
C  -2.418469  -3.991377  1.122549
C  -3.182806  -1.857626  2.862682
C  -3.993411  -2.251778  1.721776
C  -3.315490  -2.980485  0.733485
C  -2.324402  0.403691  3.256021
C  -3.427808  -0.440753  3.098862
C  -1.404281  2.699330  3.219873
C  -2.541743  1.791497  3.299723
C  -0.658959  3.908302  1.302296
C  -1.699717  3.719819  2.219600
C  0.192698  4.052119  -0.896253
C  -0.910085  4.072882  -0.044976
C  1.097038  3.243874  -2.998378
C  0.023412  3.436586  -2.121582
C  1.044810  1.994533  -3.755275
C  0.016794  -0.204574  -3.665001
C  -0.070032  1.169069  -3.542696
C  -1.141394  -2.340504  -3.440643
C  -1.108003  -0.984226  -3.975686
C  -2.441345  -3.004008  -1.507612
C  -2.454025  -2.548471  -2.834659
C  -3.438569  -2.614538  -0.611009
C  -4.826768  -1.116533  1.321854
C  -5.089567  -0.889996  -0.041618
C  -4.489432  -1.788023  -1.025021
C  -4.443914  0.017799  2.159907
C  -3.546373  2.257043  2.349378
C  -4.177040  1.266972  1.572656
C  -3.047965  3.474747  1.704808
C  -2.213450  4.100527  -0.559333
C  -3.303682  3.690038  0.332983
C  -1.234075  2.886187  -2.377305
C  -2.403092  3.445196  -1.848582
C  -1.258779  1.667930  -3.029800
C  -2.405618  -0.363049  -3.696408
C  -2.409323  0.878771  -3.036645
C  -3.292765  -1.400097  -3.169407
C  -4.322382  -1.042885  -2.273736
C  -4.995243  0.464063  -0.581342
C  -4.513804  0.369923  -1.954256
C  -4.452968  1.488255  0.215919
C  -4.112654  2.708928  -0.392107
C  -3.583162  2.592822  -1.746414
C  -3.513873  1.292359  -2.281361
