100
# Created by libgraph from Fullerene (http://tinyurl.com/fullerenes)
C  4.476282  -1.502507  0.818934
C  5.560377  -0.863933  -0.145297
C  5.161342  -1.774001  -1.354336
C  4.231294  -2.884883  -1.278440
C  4.024432  -2.800927  0.200981
C  2.961501  -2.936762  -1.985093
C  2.042390  -3.717012  -1.332063
C  2.235786  -4.498511  0.034858
C  2.918480  -3.532548  0.761958
C  4.075472  -1.029753  -1.346480
C  2.696653  -1.177735  -1.158851
C  2.714207  -1.439038  -2.484878
C  5.397963  0.624106  -0.228490
C  5.224354  1.071214  -1.458362
C  4.141373  0.095907  -1.493785
C  3.638391  -0.747559  1.718074
C  3.934208  0.708684  1.853141
C  4.755928  1.473464  0.809786
C  2.211135  -2.929411  2.000420
C  2.457014  -1.465721  2.304601
C  1.136876  -4.617660  1.003669
C  0.897782  -3.489785  2.169135
C  0.821821  -3.355578  -1.386218
C  0.018861  -4.151246  -0.916387
C  0.262727  -3.972580  0.373872
C  1.226624  -1.179593  -2.283636
C  0.451168  -2.146860  -1.805059
C  1.103521  -1.411674  -1.521217
C  0.302000  -0.261974  -2.296230
C  2.785811  0.483892  -1.701727
C  1.361762  -0.059975  -1.686774
C  4.291676  2.123153  -1.917681
C  2.848863  1.614369  -2.028392
C  4.517093  2.914780  0.545999
C  4.258449  3.176811  -0.947227
C  3.065636  1.308826  2.925578
C  2.726504  2.656931  2.449640
C  3.420819  3.483104  1.405658
C  1.254482  -0.768941  2.990193
C  1.754423  0.620407  3.442309
C  -0.198503  -2.441742  2.564283
C  -0.091289  -1.169806  2.931011
C  -0.840488  -3.683545  1.222297
C  -1.253558  -2.586475  1.879895
C  -1.362331  -3.961966  -0.633462
C  -1.782265  -4.316066  0.683708
C  -0.961485  -1.943735  -1.658358
C  -1.751959  -2.737214  -1.054454
C  -1.075618  -0.329950  -2.540199
C  -1.858467  -1.084331  -2.313998
C  0.171252  0.762434  -1.620659
C  -1.155119  0.709600  -1.947769
C  1.689501  2.156769  -1.532005
C  0.338025  1.932057  -1.449965
C  3.009232  3.876274  -0.960461
C  1.811895  3.313425  -0.998082
C  2.509210  3.812547  0.375026
C  1.237600  2.275356  2.295071
C  0.689952  2.209192  1.136205
C  1.600195  2.672137  0.551599
C  0.508743  1.423654  3.265721
C  -1.329387  -0.386736  2.671472
C  -0.919222  0.881618  2.684332
C  -2.466066  -2.002871  1.737955
C  -2.611508  -0.879941  2.132731
C  -3.113312  -3.827206  0.678260
C  -3.655508  -2.753794  1.511224
C  -3.080916  -2.358626  -0.947517
C  -3.863875  -3.208205  -0.368829
C  -3.122891  -0.550413  -2.369222
C  -3.676236  -1.198947  -1.405248
C  -2.248684  1.498229  -1.809205
C  -3.385351  0.857354  -2.267859
C  -0.771756  2.876900  -1.255402
C  -2.109792  2.648610  -1.470889
C  0.804615  3.928149  -0.259546
C  -0.470972  4.077136  -0.656751
C  0.790136  3.708130  1.116739
C  -0.750834  2.094049  1.073570
C  -1.537433  3.020393  1.077048
C  -0.814574  4.024915  1.205314
C  -1.491433  1.068190  1.396221
C  -3.729505  0.023562  1.655383
C  -2.923797  0.700479  0.913908
C  -4.808554  -1.749880  1.055841
C  -4.986063  -0.154467  0.937197
C  -5.020823  -2.366881  -0.001618
C  -4.617512  -0.470104  -1.223681
C  -5.403408  -0.947049  -0.489421
C  -4.638584  1.034101  -1.796178
C  -3.233125  3.345514  -1.214356
C  -4.549119  2.445236  -1.213618
C  -1.487958  4.694587  0.178005
C  -3.034283  4.236755  0.029531
C  -2.949637  2.570225  0.576537
C  -3.959272  3.194750  0.875306
C  -3.523777  1.446727  0.127888
C  -5.038786  1.309949  -0.060901
C  -5.955022  0.571607  -0.155159
C  -4.915781  2.069859  0.083355
