100
# Created by libgraph from Fullerene (http://tinyurl.com/fullerenes)
C  3.100964  -2.158070  2.670460
C  3.144872  -3.258048  1.714657
C  4.093611  -2.887561  0.679524
C  4.851084  -1.723848  1.146933
C  4.262981  -1.298111  2.419768
C  5.266641  -0.763129  0.202524
C  5.209175  0.661167  0.536214
C  4.686470  1.075607  1.776291
C  4.195986  0.076172  2.731654
C  3.535949  -2.872006  -0.606305
C  3.780530  -1.771703  -1.439297
C  4.844331  -0.901997  -1.189905
C  1.911936  -3.765279  1.263794
C  1.855084  -4.504670  0.083426
C  2.640041  -3.900929  -0.983296
C  1.865089  -1.532418  2.863134
C  0.676296  -2.220814  2.592098
C  0.719888  -3.423475  1.897826
C  2.959683  0.595802  3.313210
C  1.798188  -0.182709  3.199921
C  3.773735  2.219768  1.825938
C  2.813555  1.986571  2.896624
C  4.816103  1.383869  -0.676074
C  3.749294  2.289152  -0.613330
C  3.254679  2.711577  0.618779
C  4.808162  0.432493  -1.782624
C  2.870798  -1.488735  -2.453664
C  3.032302  -0.388804  -3.309707
C  3.956103  0.663825  -2.884048
C  1.715887  -3.588739  -2.065433
C  1.715406  -2.260116  -2.506071
C  0.539812  -4.861598  -0.451789
C  0.414667  -4.186847  -1.744804
C  -0.440533  -4.196262  1.729856
C  -0.569009  -4.861890  0.432029
C  -0.559575  -1.641118  2.876927
C  -1.732108  -2.272810  2.505333
C  -1.740878  -3.596029  2.054463
C  0.534937  0.407766  3.281867
C  -0.614464  -0.348285  3.378841
C  1.514282  2.431993  2.609530
C  0.409653  1.759397  3.074638
C  2.132495  3.544770  0.630293
C  1.275283  3.453653  1.712189
C  3.093931  2.704430  -1.782128
C  2.214695  3.810788  -1.774826
C  1.817451  4.336261  -0.472598
C  3.224934  1.931316  -2.945529
C  1.816383  0.250679  -3.813290
C  1.965782  1.698124  -3.637804
C  0.544888  -1.620756  -2.882261
C  0.612568  -0.328525  -3.386164
C  -0.738609  -3.405744  -1.912683
C  -0.689292  -2.200206  -2.601559
C  -1.881163  -4.494132  -0.103046
C  -1.931951  -3.748522  -1.282574
C  -2.664070  -3.894729  0.967334
C  -2.879454  -1.487076  2.445545
C  -3.788944  -1.760720  1.429745
C  -3.552881  -2.860815  0.593952
C  -1.812807  0.241011  3.813041
C  -3.032991  -0.388745  3.307512
C  -0.833634  2.390645  3.152413
C  -1.953704  1.690642  3.644481
C  0.133276  4.252794  1.820196
C  -0.981454  3.674949  2.589548
C  0.433166  4.819255  -0.566259
C  -0.403768  4.818696  0.584862
C  1.006269  3.684719  -2.576315
C  -0.106803  4.262009  -1.804278
C  0.849855  2.406421  -3.143242
C  -0.535267  0.434622  -3.277579
C  -0.396897  1.786815  -3.074535
C  -1.877025  -1.508014  -2.868342
C  -1.797147  -0.156917  -3.198917
C  -3.165045  -3.236342  -1.726674
C  -3.114505  -2.132684  -2.677657
C  -4.112357  -2.864736  -0.690308
C  -4.848196  -0.882247  1.186558
C  -5.271265  -0.734882  -0.204590
C  -4.862265  -1.694405  -1.152613
C  -3.950273  0.671480  2.886967
C  -4.804095  0.449619  1.784649
C  -3.211078  1.934101  2.953526
C  -2.189767  3.811315  1.789165
C  -3.075418  2.708200  1.792795
C  -1.791434  4.344772  0.490775
C  -1.258472  3.473925  -1.696577
C  -2.115795  3.564207  -0.614855
C  -1.503234  2.458309  -2.600150
C  -2.956443  0.621773  -3.310321
C  -2.802043  2.010736  -2.890447
C  -4.271619  -1.267873  -2.423723
C  -4.195361  0.106949  -2.730131
C  -5.205006  0.690108  -0.533300
C  -4.679248  1.105985  -1.771545
C  -4.808051  1.405590  0.681503
C  -3.736986  2.304699  0.623060
C  -3.237638  2.729841  -0.606138
C  -3.759128  2.244707  -1.817061
