100
# Created by libgraph from Fullerene (http://tinyurl.com/fullerenes)
C  1.664599  1.012209  4.209267
C  0.534951  1.933023  4.101920
C  -0.668139  1.205003  4.480789
C  -0.271714  -0.121820  4.962469
C  1.183466  -0.237339  4.809571
C  -1.104029  -1.227547  4.678397
C  -0.507595  -2.503903  4.266152
C  0.893287  -2.618084  4.118773
C  1.754854  -1.468232  4.415436
C  -1.702890  1.292274  3.539330
C  -2.489596  0.195917  3.241595
C  -2.325730  -1.034007  3.887574
C  0.455560  2.677091  2.908166
C  -0.756054  3.178903  2.452568
C  -1.882295  2.439941  2.758713
C  2.500136  0.915299  3.090322
C  2.646050  1.982923  2.213664
C  1.539138  2.802578  2.054847
C  2.843228  -1.460729  3.433621
C  3.096889  -0.277324  2.726804
C  1.447692  -3.293200  2.939212
C  2.700485  -2.633160  2.581842
C  -1.377616  -3.093503  3.244257
C  -0.802513  -3.509468  2.035582
C  0.570610  -3.583540  1.889531
C  -2.540570  -2.231919  3.079571
C  -3.339212  0.325052  2.146410
C  -3.471905  -0.792951  1.336291
C  -2.965681  -2.013454  1.756624
C  -3.118340  2.749881  2.178875
C  -3.893725  1.575547  1.804038
C  -0.794784  4.290276  1.601793
C  -2.003571  4.476091  0.791112
C  -3.153093  3.701964  1.064684
C  1.439424  3.605759  0.927435
C  0.368842  4.501187  0.742902
C  3.800990  2.108723  1.416361
C  3.637827  2.879116  0.186944
C  2.345775  3.341420  -0.093213
C  3.840388  -0.279440  1.538751
C  4.489058  0.869773  1.075268
C  2.919749  -2.424998  1.206460
C  3.761504  -1.416769  0.757483
C  1.045173  -3.796216  0.599003
C  2.189604  -3.099765  0.242149
C  -1.582038  -3.723019  0.890619
C  -1.144851  -4.549551  -0.150111
C  0.300582  -4.549768  -0.330062
C  -2.723343  -2.952199  0.758502
C  -3.937213  -0.643407  0.036788
C  -4.148563  -1.746943  -0.809421
C  -3.524026  -2.999348  -0.389721
C  -4.288463  1.732512  0.407388
C  -4.004550  0.658942  -0.445306
C  -3.897290  3.075744  -0.033377
C  -1.577305  4.685270  -0.597247
C  -2.292183  4.082686  -1.656575
C  -3.485428  3.279388  -1.368332
C  -0.111625  4.655064  -0.623657
C  1.860626  3.422657  -1.387596
C  0.523661  3.812108  -1.543637
C  4.364090  2.190839  -0.886386
C  3.860512  2.229339  -2.204947
C  2.634988  2.988472  -2.472206
C  4.878513  0.930939  -0.336735
C  4.371461  -1.502733  -0.500002
C  4.834546  -0.251144  -1.110599
C  2.490258  -2.920333  -1.100943
C  3.668624  -2.276325  -1.521166
C  0.572193  -4.268720  -1.736564
C  1.480585  -3.237888  -2.001597
C  -1.774904  -4.410348  -1.466202
C  -0.705247  -4.253024  -2.457882
C  -2.963743  -3.653954  -1.578347
C  -3.837946  -1.546937  -2.218465
C  -3.143972  -2.740513  -2.712493
C  -3.641641  0.849600  -1.767898
C  -3.291737  -0.290618  -2.503230
C  -3.491247  2.140948  -2.291195
C  -1.560825  3.414503  -2.739557
C  -2.354071  2.273820  -3.190018
C  -0.192360  3.193324  -2.553845
C  1.868634  2.278371  -3.485954
C  0.477460  2.209668  -3.271194
C  3.813439  1.004238  -3.011169
C  2.543287  1.009249  -3.745878
C  4.310791  -0.207231  -2.480614
C  3.555329  -1.441517  -2.709666
C  1.337288  -2.397201  -3.091936
C  2.250652  -1.343215  -3.206944
C  -0.881148  -3.372520  -3.547681
C  0.236243  -2.514582  -3.950029
C  -2.115175  -2.587033  -3.669012
C  -2.257014  -0.154292  -3.412606
C  -1.740943  -1.243152  -4.123737
C  -1.640063  1.089243  -3.458963
C  -0.264353  1.090062  -3.622804
C  1.751860  -0.141852  -3.680577
C  0.390924  -0.086627  -3.952963
C  -0.303502  -1.233576  -4.385593
