100
# Created by libgraph from Fullerene (http://tinyurl.com/fullerenes)
C  3.742053  -2.851935  -1.094048
C  3.580132  -2.033765  -2.294739
C  4.367330  -0.822634  -2.125599
C  5.136377  -0.947595  -0.888359
C  4.746027  -2.204841  -0.242742
C  5.356171  0.207738  -0.115107
C  5.126762  0.164972  1.330418
C  4.675836  -1.017577  1.944168
C  4.601136  -2.250479  1.159189
C  3.678074  0.370644  -2.397991
C  3.838375  1.478087  -1.551426
C  4.852484  1.498925  -0.588845
C  2.280169  -1.861470  -2.799739
C  2.020414  -0.835852  -3.725723
C  2.753687  0.397726  -3.462608
C  2.583595  -3.339673  -0.473240
C  1.386614  -3.422727  -1.176980
C  1.221793  -2.618687  -2.291278
C  3.527107  -3.060736  1.729001
C  2.565189  -3.622706  0.885703
C  3.485221  -0.969447  2.795738
C  2.894582  -2.297063  2.788944
C  4.460002  1.412280  1.685037
C  3.157778  1.346825  2.188536
C  2.640170  0.132711  2.637205
C  4.658004  2.341031  0.582433
C  2.911819  2.526280  -1.599036
C  3.040470  3.650565  -0.768463
C  3.797932  3.452077  0.462451
C  1.802441  1.504691  -3.502984
C  1.786606  2.382761  -2.405456
C  0.628498  -0.479455  -4.017485
C  0.507389  0.972178  -3.923631
C  -0.058849  -2.455003  -2.787580
C  -0.353886  -1.234906  -3.362614
C  0.314207  -4.188995  -0.696605
C  -0.874064  -4.320126  -1.439253
C  -1.046017  -3.425072  -2.579797
C  1.491639  -4.319926  1.462961
C  0.386312  -4.724456  0.594054
C  1.493870  -2.405197  2.822270
C  0.925883  -3.669131  2.629608
C  1.255927  0.006935  2.817087
C  0.680145  -1.266181  2.887628
C  2.341664  2.475531  2.134333
C  1.018439  2.406765  2.567452
C  0.444491  1.149730  2.797139
C  2.827148  3.635828  1.527492
C  1.825017  4.396103  -0.411151
C  1.820120  4.566651  1.036252
C  0.614824  3.041095  -2.022194
C  0.624198  3.972088  -0.990091
C  -0.622118  1.438165  -3.232350
C  -0.594320  2.649801  -2.574913
C  -1.614641  -0.718690  -3.105947
C  -1.752480  0.655310  -3.050481
C  -2.427204  -2.939483  -2.571741
C  -2.663837  -1.567419  -2.757119
C  -2.131557  -4.345504  -0.694106
C  -3.101181  -3.518646  -1.415251
C  -0.843446  -4.598224  1.367271
C  -2.029778  -4.213398  0.701793
C  -0.518379  -3.802460  2.542684
C  -0.717605  -1.396174  2.877253
C  -1.298873  -2.661267  2.716133
C  -0.947415  1.024077  2.879247
C  -1.528673  -0.251390  2.889374
C  0.266601  3.583742  2.648562
C  -1.182777  3.446584  2.730736
C  -1.749653  2.171620  2.819292
C  0.560514  4.628811  1.674017
C  -0.604233  4.364481  -0.450874
C  -0.659471  4.776683  0.880167
C  -1.780781  3.360748  -2.361358
C  -1.790201  4.234864  -1.193369
C  -2.962949  1.231484  -2.660362
C  -3.032953  2.603918  -2.369349
C  -3.926955  -1.039516  -2.463014
C  -4.078553  0.416556  -2.432149
C  -3.954895  -2.679270  -0.670122
C  -4.600736  -1.594982  -1.298930
C  -3.068733  -3.608826  1.438057
C  -4.105504  -2.878330  0.710141
C  -2.679691  -2.801948  2.586971
C  -2.920903  -0.376738  2.776720
C  -3.524007  -1.622825  2.608481
C  -3.138890  2.073321  2.705371
C  -3.738277  0.751328  2.703699
C  -1.764636  4.258596  1.669687
C  -2.855379  3.707107  0.962361
C  -3.745442  2.854978  1.638461
C  -2.995172  3.931160  -0.419956
C  -3.796115  2.972399  -1.185055
C  -4.832967  0.761447  -1.233896
C  -4.434896  1.908918  -0.515399
C  -5.076635  -0.473806  -0.488758
C  -4.479740  -1.719127  1.516870
C  -4.782481  -0.500006  0.880911
C  -4.703657  0.700164  1.614293
C  -4.609631  1.957188  0.875611
