100
# Created by libgraph from Fullerene (http://tinyurl.com/fullerenes)
C  2.436844  -3.374293  2.271563
C  2.011274  -4.385871  1.314222
C  2.709631  -4.068271  0.068475
C  3.788687  -3.136078  0.380222
C  3.718549  -2.844373  1.807635
C  3.955826  -2.077826  -0.529121
C  4.325160  -0.803425  -0.070676
C  4.690797  -0.627421  1.270497
C  4.148587  -1.576482  2.240774
C  1.937259  -3.776542  -1.063705
C  2.548995  -3.191512  -2.184917
C  3.661698  -2.296704  -1.883773
C  0.641023  -4.721910  1.289114
C  -0.021551  -4.741753  -0.008464
C  0.551643  -3.967737  -1.021957
C  1.480931  -2.447048  2.699257
C  0.118503  -2.772452  2.639266
C  -0.281833  -4.036781  2.188854
C  3.245751  -0.816131  3.092748
C  1.879236  -1.162260  3.076962
C  4.578650  0.704104  1.855074
C  3.564764  0.598528  2.905114
C  4.254145  0.307387  -0.929526
C  4.592810  1.587111  -0.463616
C  4.576583  1.814992  0.981001
C  3.570553  -1.137882  -2.764847
C  3.770351  0.146446  -2.234667
C  1.710378  -2.532100  -3.178607
C  2.367433  -1.284747  -3.570678
C  -0.252293  -3.279951  -1.933116
C  0.347370  -2.468557  -2.884788
C  -1.455959  -4.578865  0.225000
C  -2.224307  -3.805945  -0.663059
C  -1.649054  -3.285513  -1.821261
C  -1.615125  -4.166637  1.610542
C  -0.847540  -1.794690  2.918232
C  -2.192721  -2.039495  2.641665
C  -2.522187  -3.118918  1.823699
C  0.894212  -0.195390  3.318667
C  -0.454444  -0.528950  3.348313
C  2.480092  1.465555  2.808546
C  1.261511  1.136512  3.368029
C  3.618908  2.891593  1.224993
C  2.518314  2.610410  2.040807
C  3.985628  2.752757  -1.106380
C  3.267133  3.483266  -0.061224
C  3.390076  1.262756  -3.000645
C  3.396474  2.587250  -2.378452
C  1.564659  -0.134217  -3.699980
C  2.170057  1.129638  -3.789448
C  -0.431723  -1.469942  -3.430390
C  0.172540  -0.238597  -3.603609
C  -2.453946  -2.669865  -2.799267
C  -1.796719  -1.675670  -3.648191
C  -3.533424  -3.452392  -0.299552
C  -4.253878  -2.483726  -1.125193
C  -3.745412  -2.122199  -2.390110
C  -3.716881  -3.087661  1.096566
C  -3.180477  -1.148720  3.078593
C  -4.317160  -0.957101  2.178983
C  -4.549634  -1.889751  1.147323
C  -1.405748  0.450579  3.665692
C  -2.774707  0.172869  3.552410
C  0.394983  2.142442  3.811133
C  -1.004036  1.765316  3.968836
C  1.353544  3.384013  2.001500
C  0.452219  3.402030  3.072913
C  1.905085  3.739824  -0.273447
C  1.046990  3.988407  0.796101
C  2.085514  3.187299  -2.628622
C  1.333075  3.621987  -1.528539
C  1.357238  2.321369  -3.550774
C  -0.617550  0.894156  -3.502112
C  0.002370  2.107558  -3.259375
C  -2.625822  -0.473576  -3.675356
C  -2.013101  0.779492  -3.479543
C  -3.766699  -0.717502  -2.804624
C  -4.701025  -1.418327  -0.230029
C  -4.314013  -0.104183  -0.522315
C  -4.022879  0.264927  -1.838147
C  -4.341561  0.460864  1.836673
C  -4.131912  0.829418  0.503088
C  -3.551674  1.169421  2.833523
C  -1.805375  2.779927  3.296499
C  -2.804029  2.291421  2.440566
C  -0.918831  3.844444  2.819046
C  -0.145391  4.700168  0.608809
C  -1.206527  4.498069  1.598148
C  -0.050589  3.815804  -1.625495
C  -0.744783  4.626248  -0.720518
C  -0.732332  3.048248  -2.553717
C  -2.806878  1.887100  -3.120685
C  -2.121593  3.105305  -2.685241
C  -3.881126  1.620747  -2.177610
C  -3.655368  2.110880  0.190878
C  -3.782201  2.610882  -1.110011
C  -2.975211  2.846731  1.168030
C  -2.396094  4.084080  0.856164
C  -2.179211  4.399251  -0.557017
C  -2.861523  3.656361  -1.548349
