100
# Created by libgraph from Fullerene (http://tinyurl.com/fullerenes)
C  3.803669  -1.750864  2.470961
C  4.003898  -2.808204  1.489882
C  4.516547  -2.131056  0.306134
C  5.169026  -0.902149  0.750234
C  4.701131  -0.644627  2.113415
C  5.289526  0.153291  -0.174328
C  5.025385  1.528443  0.250559
C  4.552722  1.784034  1.552433
C  4.378619  0.672431  2.497489
C  3.648596  -2.060860  -0.788544
C  3.719315  -0.969482  -1.663892
C  4.713613  0.000542  -1.508209
C  2.987484  -3.779233  1.346872
C  2.537036  -4.066520  -0.007924
C  2.646947  -3.029489  -0.938174
C  2.483478  -1.432027  2.803498
C  1.472133  -2.391728  2.643848
C  1.765302  -3.670020  2.136714
C  3.122370  0.891163  3.209965
C  2.146025  -0.125532  3.172056
C  3.430008  2.705609  1.738740
C  2.645913  2.228849  2.869830
C  4.402921  2.223626  -0.880869
C  3.190559  2.893886  -0.683845
C  2.713974  3.117002  0.604076
C  4.464629  1.336078  -2.035692
C  2.727434  -0.799645  -2.632701
C  2.740867  0.312681  -3.492729
C  3.514475  1.478641  -3.068452
C  1.692748  -2.892209  -1.946972
C  1.653145  -1.693764  -2.653410
C  1.238293  -4.734597  0.088403
C  0.351740  -4.714423  -1.017739
C  0.727659  -3.887971  -2.160782
C  0.704642  -4.369087  1.397796
C  0.136648  -2.023658  2.855580
C  -0.877406  -2.841971  2.413388
C  -0.546107  -3.748370  1.423589
C  0.792088  0.190450  3.361691
C  -0.192069  -0.773528  3.342110
C  1.261672  2.361365  2.723751
C  0.408034  1.507436  3.361162
C  1.428163  3.642255  0.735652
C  0.674856  3.214735  1.814677
C  2.383528  3.251574  -1.775704
C  1.306648  4.153593  -1.627750
C  0.881609  4.447715  -0.263694
C  2.581919  2.605723  -3.003644
C  1.457385  0.794145  -3.999213
C  1.348942  2.214978  -3.675306
C  0.474824  -1.311840  -3.271861
C  0.356422  -0.001552  -3.685708
C  -0.502738  -3.489992  -2.854987
C  -0.621408  -2.174525  -3.332569
C  -1.082138  -4.484924  -0.811358
C  -1.629243  -3.906647  -2.031599
C  -1.447443  -3.864070  0.379285
C  -2.200609  -2.646753  2.828726
C  -3.181630  -2.898260  1.778840
C  -2.672239  -3.204841  0.504786
C  -1.522601  -0.429123  3.629359
C  -2.547932  -1.375283  3.462396
C  -0.843613  1.946408  3.793027
C  -1.854115  0.902292  3.952577
C  -0.695800  3.479099  1.907147
C  -1.433111  3.046873  3.028404
C  -0.575224  4.596792  -0.255810
C  -1.329903  4.041754  0.799773
C  0.105357  3.877801  -2.407474
C  -1.053656  4.193549  -1.570568
C  0.141389  2.651827  -3.082598
C  -0.902149  0.541653  -3.591223
C  -0.979631  1.811500  -3.050450
C  -1.883226  -1.686900  -3.739773
C  -2.025100  -0.236499  -3.883918
C  -2.682362  -2.975212  -1.894703
C  -3.029264  -2.170544  -2.987176
C  -3.306929  -2.762978  -0.656743
C  -4.227439  -1.881131  1.878430
C  -4.872085  -1.436313  0.710194
C  -4.495478  -2.028332  -0.573746
C  -3.782105  -0.888386  2.857125
C  -3.084288  1.386365  3.332914
C  -3.789007  0.477437  2.520463
C  -2.852764  2.752878  2.852613
C  -2.723080  3.933474  0.661312
C  -3.485438  3.193263  1.674213
C  -2.144439  3.306664  -1.559479
C  -3.189104  3.525404  -0.654669
C  -2.126568  2.147812  -2.338209
C  -3.258514  0.167259  -3.214518
C  -3.191868  1.235607  -2.299683
C  -3.951061  -1.051680  -2.788082
C  -4.731564  -1.029335  -1.614933
C  -5.052598  -0.004340  0.488116
C  -4.938991  0.248077  -0.942074
C  -4.421080  0.913344  1.347210
C  -4.363157  2.264735  0.964074
C  -4.195073  2.488572  -0.465863
C  -4.127966  1.339791  -1.266139
