100
# Created by libgraph from Fullerene (http://tinyurl.com/fullerenes)
C  3.332828  -3.083848  1.395326
C  3.523840  -1.989382  2.343205
C  4.503856  -1.071304  1.787760
C  4.998698  -1.636336  0.535791
C  4.300122  -2.905050  0.307955
C  5.253212  -0.764230  -0.536715
C  4.774939  -1.107046  -1.877213
C  4.080964  -2.313184  -2.099881
C  3.941854  -3.275874  -1.004705
C  4.127533  0.280987  1.848597
C  4.309933  1.121408  0.742885
C  5.055575  0.678039  -0.359215
C  2.386737  -1.389857  2.907573
C  2.531651  -0.184245  3.618257
C  3.473368  0.741557  3.002424
C  2.023760  -3.424132  1.032648
C  0.938570  -2.985021  1.785956
C  1.113654  -1.910858  2.649014
C  2.683872  -3.993719  -1.211177
C  1.768871  -4.091377  -0.158433
C  2.802535  -2.282202  -2.813929
C  2.039077  -3.453319  -2.392425
C  4.226954  0.117679  -2.448812
C  2.861738  0.148730  -2.740019
C  2.144674  -1.049007  -2.863389
C  4.743522  1.234529  -1.666212
C  3.678260  2.378114  0.700898
C  3.769326  3.166932  -0.454175
C  4.085556  2.479248  -1.703971
C  2.867186  2.070210  2.974348
C  2.891838  2.809518  1.780434
C  1.341957  0.579772  3.984032
C  1.565140  1.981678  3.622291
C  -0.014174  -1.253696  3.119131
C  0.122735  0.033071  3.593322
C  -0.338722  -3.521636  1.565024
C  -1.460452  -2.931792  2.167796
C  -1.295252  -1.798289  2.968768
C  0.529160  -4.712768  -0.390007
C  -0.495134  -4.563466  0.640262
C  0.639952  -3.333499  -2.277491
C  -0.085505  -4.360920  -1.657084
C  0.747587  -1.006503  -2.909132
C  -0.000076  -2.140548  -2.614315
C  2.190268  1.375267  -2.785402
C  0.803646  1.379767  -2.954529
C  0.092899  0.205036  -3.095836
C  2.886069  2.570837  -2.521150
C  2.696263  4.118196  -0.738140
C  2.083245  3.675121  -1.992385
C  2.052386  3.935108  1.654922
C  1.876995  4.545710  0.334502
C  0.500710  2.663626  2.990576
C  0.745295  3.867325  2.307766
C  -0.989015  0.825721  3.465287
C  -0.767048  2.070670  2.922196
C  -2.415298  -1.135796  3.509416
C  -2.262263  0.305008  3.707746
C  -2.743116  -3.408486  1.871003
C  -3.870224  -2.489335  2.064600
C  -3.718638  -1.362106  2.894552
C  -1.786782  -4.620056  -0.038859
C  -2.933137  -4.078693  0.590360
C  -1.517486  -4.191928  -1.406537
C  -1.387701  -2.016015  -2.492991
C  -2.100941  -2.983957  -1.792255
C  -1.295266  0.271027  -3.250373
C  -2.046644  -0.860484  -2.938018
C  0.100317  2.554681  -2.792267
C  -1.216065  2.721860  -3.238837
C  -1.915765  1.488396  -3.584694
C  0.704633  3.471714  -1.961156
C  0.434374  4.679806  0.109807
C  -0.110785  4.034203  -1.006113
C  -0.256189  4.353498  1.353937
C  -1.769799  2.605849  2.136923
C  -1.420800  3.577852  1.220882
C  -3.359082  0.978628  3.016962
C  -3.055144  2.042642  2.145133
C  -4.218856  -0.057240  2.451147
C  -4.499369  -2.306397  0.759713
C  -4.704725  -1.005601  0.261827
C  -4.616607  0.103976  1.112549
C  -3.853269  -3.226417  -0.166407
C  -3.377680  -2.657981  -1.349496
C  -3.445009  -0.794863  -2.948441
C  -4.125711  -1.674478  -2.008451
C  -3.318795  1.655672  -3.198006
C  -4.082700  0.518051  -2.872635
C  -2.084521  3.486884  -2.353094
C  -3.405813  2.853413  -2.354721
C  -1.483674  3.770068  -1.120382
C  -2.176899  3.599025  0.060016
C  -4.006366  2.445892  1.187741
C  -3.540527  3.297299  0.093565
C  -4.845519  1.400961  0.619423
C  -4.909026  -0.831466  -1.118968
C  -4.937564  0.518317  -1.683272
C  -4.941109  1.628868  -0.822966
C  -4.147888  2.816960  -1.151569
