100
# Created by libgraph from Fullerene (http://tinyurl.com/fullerenes)
C  4.904505  -0.209924  1.212783
C  5.144768  0.482996  -0.040367
C  4.937839  -0.490928  -1.099822
C  4.914587  -1.828354  -0.500275
C  4.891244  -1.653638  0.952436
C  4.128846  -2.830855  -1.104751
C  3.412972  -3.800878  -0.267862
C  3.380133  -3.631343  1.134825
C  4.089995  -2.501215  1.744257
C  3.942580  -0.138072  -2.012152
C  3.003360  -1.098032  -2.400686
C  3.249758  -2.467823  -2.216303
C  4.536681  1.751648  -0.170621
C  4.190998  2.228293  -1.447099
C  3.837922  1.203721  -2.425923
C  3.907860  0.334399  2.023803
C  3.819339  1.725408  2.169991
C  4.200878  2.485274  0.983350
C  3.188086  -1.879396  2.711346
C  2.943336  -0.502655  2.577835
C  2.115538  -3.793643  1.862050
C  2.030685  -2.751351  2.877255
C  2.178178  -4.166086  -0.968318
C  0.970613  -4.161476  -0.252576
C  0.948698  -3.988648  1.114955
C  2.111390  -3.385727  -2.196312
C  1.760857  -0.661010  -2.857309
C  0.696916  -1.551881  -2.957843
C  0.855151  -2.836336  -2.481007
C  2.595439  1.611230  -3.071160
C  1.539622  0.692582  -3.061081
C  3.225988  3.322826  -1.572984
C  2.274650  2.966441  -2.620949
C  3.278387  3.614199  0.853493
C  2.706302  3.903924  -0.399946
C  2.581245  2.302412  2.684119
C  2.345987  3.554108  1.974420
C  1.696044  0.047641  2.885192
C  1.498037  1.426540  2.823180
C  0.764145  -2.152690  2.948221
C  0.613735  -0.791706  3.108429
C  -0.311412  -3.812414  1.686922
C  -0.390990  -2.875344  2.693280
C  -0.269668  -4.155421  -0.904561
C  -1.440934  -4.616495  -0.295756
C  -1.449820  -4.426881  1.151043
C  -0.312420  -3.480342  -2.105178
C  -0.574093  -1.126590  -3.373635
C  -1.618312  -2.044561  -3.566771
C  -1.493543  -3.301297  -2.828937
C  0.219453  1.117985  -3.113184
C  -0.816253  0.243137  -3.440191
C  0.937408  3.279879  -2.327211
C  -0.079754  2.387553  -2.668511
C  1.546837  4.711793  -0.468220
C  0.642275  4.425739  -1.571591
C  1.010699  3.890432  1.703838
C  0.722041  4.838464  0.726156
C  0.186783  1.910121  2.764775
C  -0.041818  3.204820  2.310661
C  -0.669125  -0.283284  3.321191
C  -0.892283  1.063865  3.027794
C  -1.602009  -2.557983  3.306067
C  -1.723275  -1.146963  3.683232
C  -2.745679  -3.858479  1.533333
C  -2.833050  -2.963363  2.628032
C  -2.719250  -4.136110  -0.822296
C  -3.427515  -3.496648  0.289565
C  -2.744847  -3.527973  -2.100358
C  -2.985159  -1.565416  -3.394454
C  -3.552092  -2.321671  -2.278628
C  -2.101899  0.743206  -3.688779
C  -3.222320  -0.175738  -3.480433
C  -1.407171  2.693571  -2.423723
C  -2.450313  2.023401  -3.072443
C  -0.735166  4.585334  -1.087068
C  -1.657779  3.575054  -1.389726
C  -0.671226  5.003052  0.310945
C  -1.328681  3.757948  2.351345
C  -1.689155  4.582663  1.200069
C  -2.197415  1.524090  2.857251
C  -2.467260  2.879876  2.639170
C  -3.061787  -0.704724  3.316786
C  -3.220075  0.581395  2.775360
C  -3.663181  -1.764308  2.516887
C  -3.858561  -2.170835  0.128987
C  -4.137877  -1.386570  1.253644
C  -3.940931  -1.592918  -1.146140
C  -4.083809  0.438822  -2.472211
C  -4.340248  -0.253552  -1.280500
C  -3.678948  1.832054  -2.312449
C  -2.781484  3.339871  -0.602930
C  -3.715032  2.373886  -1.010946
C  -2.892552  3.978441  0.633746
C  -3.527116  3.197624  1.688524
C  -4.368008  0.876755  2.033353
C  -4.429919  2.165870  1.341657
C  -4.811327  -0.162839  1.116957
C  -4.920026  0.437903  -0.203727
C  -4.626221  1.864141  -0.076605
