100
# Created by libgraph from Fullerene (http://tinyurl.com/fullerenes)
C  2.428107  0.923050  3.881650
C  1.810055  2.230715  3.693240
C  2.634448  2.974870  2.757675
C  3.832712  2.186145  2.467102
C  3.733089  0.928885  3.214130
C  4.344307  2.191454  1.155745
C  4.883013  0.955381  0.579948
C  4.828248  -0.252408  1.310115
C  4.236296  -0.265362  2.650856
C  1.895963  3.529577  1.705534
C  2.313809  3.351078  0.385540
C  3.612718  2.899205  0.100141
C  0.418982  2.272774  3.448578
C  -0.160892  3.462369  2.980849
C  0.668196  4.147022  1.999112
C  1.611665  -0.185695  3.673175
C  0.241504  -0.101162  3.849129
C  -0.353315  1.106585  3.531989
C  3.439982  -1.489306  2.771218
C  2.101969  -1.365208  3.153582
C  4.421428  -1.492122  0.638383
C  3.651114  -2.298086  1.577469
C  4.530488  0.939421  -0.839437
C  3.938007  -0.212931  -1.371300
C  3.897102  -1.395472  -0.653895
C  3.824510  2.176246  -1.148712
C  1.378657  3.517128  -0.645270
C  1.604095  2.888108  -1.866923
C  2.716947  2.067329  -2.001105
C  -0.184621  4.555863  0.887254
C  0.176780  4.194251  -0.416179
C  -1.527745  3.434901  2.461523
C  -1.559316  4.214850  1.228456
C  -1.685162  1.101261  3.136277
C  -2.174822  2.195930  2.436858
C  -0.502189  -1.243335  4.182164
C  -1.938749  -1.191173  3.921358
C  -2.475026  -0.044154  3.313521
C  1.169939  -2.371038  2.894708
C  0.008824  -2.508597  3.666235
C  2.525225  -2.935900  1.016634
C  1.355083  -3.111675  1.741865
C  3.168377  -2.448448  -1.207138
C  2.490024  -3.275385  -0.329152
C  3.245247  -0.170883  -2.584720
C  3.042135  -1.320910  -3.356742
C  3.017311  -2.567123  -2.593644
C  2.631131  1.025123  -2.916843
C  0.655252  2.963489  -2.894342
C  0.747842  2.117557  -4.016869
C  1.840476  1.148136  -4.059824
C  -0.742865  4.407538  -1.455971
C  -0.474409  3.783755  -2.746881
C  -2.367774  3.729034  0.179017
C  -2.147440  4.187356  -1.127260
C  -3.257140  1.989301  1.595323
C  -3.310125  2.716358  0.408133
C  -3.773078  -0.097537  2.779845
C  -4.193525  0.994322  1.897520
C  -2.329752  -2.462177  3.314359
C  -3.275239  -2.432653  2.268039
C  -4.181968  -1.354220  2.165785
C  -1.115164  -3.247161  3.094124
C  0.325264  -3.900729  1.227274
C  -0.940470  -3.828922  1.825281
C  1.686900  -4.319041  -0.793244
C  0.536950  -4.653987  0.056867
C  1.880043  -3.360748  -3.060849
C  1.217439  -4.242013  -2.174146
C  1.901246  -1.334299  -4.268658
C  1.051745  -2.444030  -3.837276
C  1.306866  -0.098183  -4.612007
C  -0.476641  1.419034  -4.368747
C  -0.143117  0.003510  -4.492578
C  -1.702844  3.133949  -3.178670
C  -1.560370  1.795231  -3.565506
C  -2.775207  3.481913  -2.244940
C  -4.225888  2.351473  -0.581304
C  -3.790017  2.541642  -1.960183
C  -4.920157  0.411875  0.772932
C  -4.841832  1.031317  -0.494491
C  -4.717523  -1.032474  0.849853
C  -3.260126  -3.433173  1.271537
C  -3.684395  -3.011334  -0.057335
C  -4.059695  -1.670786  -0.198743
C  -2.059695  -4.247107  1.100866
C  -0.618249  -4.810854  -0.820599
C  -1.907134  -4.527303  -0.325362
C  -0.238532  -4.210004  -2.093298
C  -0.213636  -2.122880  -3.329703
C  -0.857598  -3.010689  -2.460327
C  -0.787786  -0.878618  -3.614080
C  -2.416726  0.829963  -3.042651
C  -1.952424  -0.484935  -2.941216
C  -3.666843  1.205626  -2.534812
C  -4.332118  0.267671  -1.631131
C  -3.688162  -0.937181  -1.325898
C  -2.736451  -3.551913  -1.024563
C  -2.079244  -2.656503  -1.879071
C  -2.594309  -1.371745  -2.075174
