100
# Created by libgraph from Fullerene (http://tinyurl.com/fullerenes)
C  2.779555  0.026066  3.559297
C  3.473137  1.143255  2.918996
C  4.476490  0.587673  2.020602
C  4.369635  -0.867988  2.095705
C  3.487425  -1.205688  3.212298
C  4.189360  -1.527919  0.876063
C  3.332029  -2.637281  0.811769
C  2.904103  -3.276418  1.978551
C  2.781649  -2.431743  3.161493
C  4.580694  1.195705  0.750497
C  4.987743  0.434176  -0.363477
C  4.796026  -1.009529  -0.282292
C  2.689382  2.194310  2.412078
C  3.258508  3.121534  1.536438
C  4.194468  2.544354  0.579017
C  1.387253  -0.001263  3.459177
C  0.673803  1.172375  3.239288
C  1.318976  2.254399  2.673688
C  1.363989  -2.426175  3.507178
C  0.690481  -1.202081  3.447894
C  1.718686  -4.132764  1.914424
C  0.719805  -3.535171  2.800840
C  2.827445  -3.033548  -0.426054
C  1.958508  -4.126808  -0.555136
C  1.316187  -4.634842  0.656119
C  4.270528  -1.458089  -1.565831
C  3.118450  -2.243913  -1.534676
C  4.553014  0.862577  -1.690074
C  4.289969  -0.327851  -2.493068
C  3.743375  2.929903  -0.755442
C  3.624220  1.905225  -1.701897
C  2.376547  4.033685  0.808197
C  2.634215  3.868772  -0.612484
C  0.543297  3.325791  2.238800
C  1.020037  4.071407  1.166306
C  -0.704844  1.225623  3.447169
C  -1.380519  2.446385  3.495259
C  -0.732581  3.550555  2.784081
C  -0.688303  -1.148605  3.244791
C  -1.402414  0.024556  3.460172
C  -0.552959  -3.308504  2.252201
C  -1.326019  -2.234065  2.677413
C  -0.114249  -4.742844  0.368005
C  -1.021454  -4.063394  1.184012
C  0.952751  -4.051205  -1.613901
C  -0.324874  -4.460014  -1.044808
C  2.179632  -2.182023  -2.554229
C  0.989218  -2.881378  -2.381649
C  3.320218  -0.246179  -3.516870
C  2.378616  -1.353360  -3.658534
C  2.539818  1.866072  -2.585536
C  2.542352  0.981386  -3.672865
C  1.465698  3.677341  -1.367745
C  1.409206  2.640503  -2.310195
C  0.111604  4.743778  0.346896
C  0.327678  4.454217  -1.064083
C  -1.728332  4.141191  1.890019
C  -1.319830  4.635977  0.630869
C  -2.796544  2.447035  3.141631
C  -2.913300  3.284040  1.952866
C  -2.795508  -0.008717  3.553308
C  -3.502430  1.220937  3.196699
C  -2.697734  -2.179677  2.415591
C  -3.485452  -1.129242  2.914181
C  -2.378058  -4.029894  0.820011
C  -3.261884  -3.113512  1.541047
C  -1.462863  -3.685386  -1.351455
C  -2.633663  -3.873139  -0.602075
C  -0.177237  -2.309900  -2.877179
C  -1.399431  -2.655318  -2.300721
C  1.165758  -0.839416  -4.285785
C  -0.090393  -1.301574  -3.843752
C  1.264180  0.611089  -4.279482
C  0.187413  2.291942  -2.889119
C  0.108902  1.278194  -3.850917
C  -0.947179  4.040470  -1.634578
C  -0.978316  2.865250  -2.396616
C  -1.956942  4.122381  -0.580479
C  -3.334630  2.638508  0.786442
C  -2.826005  3.030319  -0.450177
C  -4.379248  0.877556  2.077816
C  -4.192838  1.530654  0.855540
C  -4.485430  -0.578348  2.009377
C  -4.195745  -2.542029  0.577718
C  -4.583070  -1.192938  0.742553
C  -3.741645  -2.934591  -0.753293
C  -2.528645  -1.879226  -2.582409
C  -3.616908  -1.915771  -1.704159
C  -1.244608  -0.632666  -4.279189
C  -2.525228  -0.999403  -3.674745
C  -1.147025  0.818072  -4.292937
C  -2.171828  2.170850  -2.574094
C  -2.362709  1.335460  -3.673297
C  -3.112428  2.237175  -1.557939
C  -4.794270  1.006875  -0.302737
C  -4.264240  1.450459  -1.586396
C  -4.985038  -0.437229  -0.378047
C  -4.544611  -0.871473  -1.701100
C  -3.304225  0.228742  -3.528377
C  -4.278346  0.315293  -2.508482
