100
# Created by libgraph from Fullerene (http://tinyurl.com/fullerenes)
C  2.822603  -1.934034  3.011822
C  3.102753  -3.032267  2.095432
C  4.159138  -2.587320  1.204082
C  4.745705  -1.368250  1.764607
C  3.937595  -0.985111  2.925560
C  5.228772  -0.382477  0.880732
C  5.017044  1.034251  1.181434
C  4.280959  1.410655  2.321593
C  3.714802  0.379335  3.199059
C  3.801495  -2.618009  -0.151254
C  4.094190  -1.508589  -0.958030
C  5.036280  -0.557194  -0.557566
C  1.994285  -3.641054  1.481972
C  2.155823  -4.369040  0.304198
C  3.048235  -3.711433  -0.641280
C  1.522036  -1.414928  3.002167
C  0.447855  -2.219273  2.605254
C  0.704695  -3.415122  1.950609
C  2.361593  0.800414  3.557909
C  1.295631  -0.065527  3.258193
C  3.296534  2.488472  2.217600
C  2.194200  2.181070  3.120323
C  4.764121  1.723130  -0.087302
C  3.637765  2.548121  -0.200311
C  2.942083  2.946956  0.938512
C  4.994625  0.769588  -1.167960
C  3.346634  -1.304664  -2.115411
C  3.561523  -0.193775  -2.948924
C  4.309270  0.933295  -2.390685
C  2.285512  -3.482017  -1.860955
C  2.281964  -2.169340  -2.353097
C  0.952710  -4.803813  -0.411363
C  0.975773  -4.127814  -1.708988
C  -0.334603  -4.301626  1.648803
C  -0.266920  -4.881033  0.308042
C  -0.869497  -1.771634  2.722987
C  -1.941881  -2.617333  2.451820
C  -1.718015  -3.873804  1.871227
C  -0.002040  0.427272  3.074697
C  -1.094165  -0.420664  2.947445
C  0.940162  2.538781  2.612309
C  -0.176148  1.773093  2.836968
C  1.783196  3.708541  0.768920
C  0.789239  3.574037  1.715797
C  3.126446  2.897398  -1.460574
C  2.160800  3.918872  -1.606383
C  1.572978  4.455828  -0.386794
C  3.488876  2.133147  -2.577883
C  2.404049  0.345863  -3.663263
C  2.361387  1.789499  -3.433196
C  1.162381  -1.636554  -2.973556
C  1.209497  -0.351386  -3.474093
C  -0.158171  -3.376035  -2.052743
C  -0.049809  -2.312324  -2.936238
C  -1.498098  -4.477074  -0.371704
C  -1.389132  -3.580243  -1.437662
C  -2.469242  -4.106223  0.650261
C  -3.258883  -2.151027  2.603395
C  -4.076746  -2.474406  1.447772
C  -3.381509  -3.068367  0.382624
C  -2.389856  0.105879  2.884531
C  -3.499838  -0.743563  2.911842
C  -1.441136  2.323265  2.636950
C  -2.555378  1.479508  2.660865
C  -0.383637  4.330322  1.672000
C  -1.558241  3.678386  2.271183
C  0.181673  4.826654  -0.673837
C  -0.781074  4.855038  0.368653
C  1.064545  3.646172  -2.527060
C  -0.177648  4.106137  -1.892069
C  1.114421  2.355881  -3.075440
C  -0.007185  0.282994  -3.588650
C  -0.052588  1.585593  -3.133448
C  -1.173309  -1.850994  -3.645913
C  -1.147042  -0.429443  -3.983905
C  -2.477871  -2.783156  -1.828059
C  -2.485893  -2.147011  -3.079612
C  -3.498589  -2.537782  -0.905263
C  -4.976745  -1.349816  1.180935
C  -5.243507  -0.973043  -0.149041
C  -4.566803  -1.691598  -1.229058
C  -4.693099  -0.319215  2.182985
C  -3.807801  1.999311  2.328983
C  -4.814175  1.046348  1.852899
C  -2.704294  3.998814  1.429122
C  -3.828114  3.140970  1.426444
C  -2.128263  4.330307  0.133617
C  -1.241015  3.192486  -1.807082
C  -2.257675  3.366037  -0.867734
C  -1.241601  2.031573  -2.574855
C  -2.421841  0.147055  -3.569117
C  -2.385246  1.228924  -2.672005
C  -3.321935  -0.960802  -3.249227
C  -4.371917  -0.754451  -2.333012
C  -5.276822  0.442873  -0.518612
C  -4.539702  0.580250  -1.773298
C  -5.128790  1.428499  0.474771
C  -4.310157  2.599208  0.163784
C  -3.355791  2.492842  -0.853217
C  -3.444418  1.452715  -1.786958
