100
# Created by libgraph from Fullerene (http://tinyurl.com/fullerenes)
C  4.736961  0.060638  1.446590
C  4.642777  1.510921  1.341219
C  4.986009  1.818779  -0.047554
C  5.478017  0.626720  -0.748630
C  5.388757  -0.446637  0.225078
C  5.077897  0.387574  -2.117038
C  4.613612  -0.947620  -2.539741
C  4.642575  -1.994478  -1.611910
C  5.066154  -1.745301  -0.224346
C  3.892921  2.402343  -0.602300
C  3.328120  1.773267  -1.656862
C  4.088201  1.238572  -2.699078
C  3.475095  2.132325  1.879093
C  3.125730  3.416898  1.466312
C  3.269864  3.500662  0.013207
C  3.622114  -0.640190  1.931890
C  2.600616  0.012340  2.628738
C  2.574357  1.412426  2.692084
C  4.229999  -2.584983  0.644587
C  3.484341  -2.007959  1.680259
C  3.484876  -2.897292  -1.531974
C  3.421930  -3.465437  -0.175449
C  3.349166  -0.800836  -3.309201
C  2.115264  -1.215652  -2.707421
C  2.243653  -2.417798  -1.999839
C  3.211523  0.518717  -3.595962
C  1.957619  1.687109  -1.565848
C  1.303897  0.644703  -1.990386
C  2.032424  0.908167  -2.980346
C  1.956266  3.810766  -0.500107
C  1.307544  2.864543  -1.244665
C  1.805282  3.967108  1.861770
C  1.126454  4.283545  0.593011
C  1.546247  2.063728  3.434856
C  1.083767  3.384645  2.955403
C  1.512228  -0.721859  3.140064
C  0.330754  -0.051946  3.426625
C  0.351871  1.294528  3.816499
C  2.550126  -2.803120  2.408247
C  1.563245  -2.118023  3.228394
C  2.107113  -3.782250  0.346908
C  1.843938  -3.863438  1.705357
C  1.050722  -3.046491  -1.591500
C  0.982713  -3.780971  -0.461494
C  0.765613  -0.510294  -2.709863
C  -0.358775  -1.411901  -2.356164
C  -0.185408  -2.729568  -2.125782
C  0.611270  0.971109  -2.866024
C  -0.106985  0.768040  -2.611503
C  -0.423155  0.719547  -1.557026
C  -0.011668  3.066545  -1.583171
C  -0.561414  2.179309  -2.444564
C  -0.235794  3.949127  0.508100
C  -0.820613  3.818883  -0.728470
C  -0.398342  3.351895  2.873883
C  -0.996377  3.553343  1.604188
C  -0.844455  2.093557  3.503228
C  -0.891322  -0.731129  3.181182
C  -2.055513  0.024537  2.926974
C  -1.934011  1.418530  2.880952
C  0.290630  -2.857143  3.167044
C  -0.909385  -2.139258  3.071359
C  0.427527  -3.911625  2.180899
C  -0.375253  -4.096744  -0.068576
C  -0.652796  -4.022854  1.287112
C  -1.370613  -3.546140  -2.212534
C  -1.479286  -4.251557  -0.967175
C  -1.673088  -0.941828  -2.233456
C  -2.805908  -1.548574  -2.597291
C  -2.774518  -2.928224  -2.453364
C  -1.631771  0.337307  -2.070477
C  -1.987238  2.379533  -2.463099
C  -2.512278  1.187027  -2.638875
C  -2.205595  4.156680  -0.900005
C  -2.791834  3.433760  -2.032101
C  -2.336545  3.206738  1.329704
C  -3.049294  3.807664  0.256888
C  -2.831666  2.105499  2.044867
C  -3.246780  -0.630526  2.555233
C  -4.333927  0.117636  2.065650
C  -4.122133  1.571632  1.830049
C  -2.098224  -2.831847  2.773860
C  -3.313884  -2.044365  2.542176
C  -1.980986  -3.894873  1.777231
C  -2.901946  -4.000135  -0.454677
C  -3.122797  -3.751671  0.897792
C  -3.694509  -3.175346  -1.381610
C  -3.911794  -0.688368  -2.903826
C  -4.789254  -0.848792  -1.840486
C  -4.364995  -1.922542  -0.949123
C  -3.726368  0.789643  -3.034035
C  -4.131802  2.878690  -1.649137
C  -4.587607  1.574350  -2.171127
C  -4.288215  3.084522  -0.193111
C  -4.814957  1.972256  0.606174
C  -5.027059  -0.446364  0.919597
C  -5.337575  0.704843  0.027126
C  -3.953402  -2.600369  1.347080
C  -4.487012  -1.672240  0.426424
C  -5.211661  0.523331  -1.352658
