100
# Created by libgraph from Fullerene (http://tinyurl.com/fullerenes)
C  4.748606  -0.237612  1.546148
C  5.264372  0.569215  0.454077
C  5.076380  -0.250356  -0.733728
C  5.043673  -1.650761  -0.297901
C  4.883089  -1.639721  1.156670
C  4.334787  -2.586303  -1.076490
C  3.577568  -3.659882  -0.419259
C  3.486614  -3.696371  0.987079
C  4.069773  -2.608772  1.774169
C  4.100242  0.198658  -1.629638
C  3.315605  -0.726320  -2.316716
C  3.541791  -2.110669  -2.208643
C  4.886537  1.928570  0.433624
C  4.337779  2.468221  -0.807082
C  3.831626  1.572917  -1.760873
C  3.528086  0.157550  2.097916
C  3.173008  1.507014  2.077533
C  4.026725  2.442488  1.492334
C  3.031204  -2.134271  2.684884
C  2.625689  -0.800912  2.558631
C  2.217128  -4.049643  1.628495
C  1.988082  -3.147553  2.741547
C  2.364865  -3.903670  -1.203998
C  1.128926  -3.995460  -0.529062
C  1.085307  -4.258977  0.834788
C  2.393431  -3.003386  -2.350507
C  2.212371  -0.249649  -3.022149
C  1.111310  -1.087993  -3.125087
C  1.184341  -2.386848  -2.669530
C  2.978255  2.055288  -2.774126
C  2.169309  1.073603  -3.487520
C  3.453605  3.579252  -0.451759
C  2.225758  3.671529  -1.129798
C  2.119565  3.191529  -2.446870
C  3.434600  3.680061  1.008671
C  1.916320  1.908467  2.533389
C  1.601435  3.271048  2.626275
C  2.273351  4.140261  1.663286
C  1.296775  -0.423417  2.782939
C  0.946981  0.932152  2.774367
C  0.642450  -2.753378  2.807386
C  0.303123  -1.400345  2.883110
C  -0.136729  -4.572248  1.453557
C  -0.346604  -3.733768  2.620820
C  -0.079252  -3.687952  -1.175174
C  -1.315052  -3.929942  -0.575110
C  -1.379832  -4.528699  0.685768
C  -0.025437  -2.979309  -2.361409
C  -0.119043  -0.581339  -3.515022
C  -1.218097  -1.409959  -3.781803
C  -1.158604  -2.722625  -3.143849
C  0.832670  1.638475  -3.680281
C  -0.260093  0.788362  -3.443135
C  0.788322  2.925319  -2.993122
C  1.091007  4.148637  -0.457201
C  -0.171884  3.989711  -1.027549
C  -0.298766  3.160556  -2.137717
C  1.212714  4.677186  0.830134
C  0.190792  3.661713  2.649855
C  -0.000621  4.699050  1.642760
C  -0.393974  1.306262  2.877139
C  -0.758521  2.636217  2.678311
C  -1.039209  -1.012840  2.916792
C  -1.382941  0.333799  3.047791
C  -1.746390  -3.320496  2.638435
C  -2.040103  -1.954665  2.685912
C  -2.428628  -4.064480  1.583469
C  -2.481144  -3.449512  -1.191194
C  -3.666108  -3.343707  -0.451485
C  -3.593089  -3.518043  0.999991
C  -2.452238  -2.983456  -2.516968
C  -2.549588  -0.857517  -3.540866
C  -3.333777  -1.856222  -2.822402
C  -1.482298  1.261248  -2.984227
C  -2.629025  0.464479  -3.069845
C  -1.496937  2.465627  -2.298025
C  -1.303468  4.559734  -0.427111
C  -2.606015  3.976667  -0.766403
C  -2.658669  2.900773  -1.661555
C  -1.266567  4.762963  1.016503
C  -2.088272  2.909006  2.372476
C  -2.391067  3.997463  1.557809
C  -2.726774  0.699299  3.225637
C  -3.102790  2.033292  2.772584
C  -3.325337  -1.505672  2.382625
C  -3.751378  -0.227199  2.760836
C  -4.149728  -2.302897  1.588644
C  -4.535702  -2.201815  -0.727978
C  -4.866529  -1.577322  0.548757
C  -4.189918  -1.373674  -1.810145
C  -3.844405  0.944514  -2.569939
C  -4.640569  -0.037675  -1.842018
C  -3.859964  2.190862  -1.805319
C  -3.325350  3.733836  0.476362
C  -4.078375  2.541450  0.576397
C  -4.625729  1.969558  -0.586515
C  -4.198820  1.887207  1.817915
C  -4.611941  0.484324  1.822827
C  -4.866640  -0.169694  0.602676
C  -5.047957  0.569583  -0.575997
