100
# Created by libgraph from Fullerene (http://tinyurl.com/fullerenes)
C  2.923453  -3.176893  2.093405
C  3.149548  -3.848583  0.822888
C  3.952649  -2.917099  0.042222
C  4.691985  -2.083851  0.984279
C  4.010607  -2.205693  2.274744
C  5.148376  -0.831218  0.531203
C  4.977406  0.353025  1.374240
C  4.280237  0.255164  2.594085
C  3.796903  -1.053737  3.056182
C  3.311555  -2.284294  -1.028332
C  3.756978  -1.027762  -1.457669
C  4.852063  -0.418521  -0.839183
C  2.046501  -4.489671  0.222169
C  1.749031  -4.130532  -1.158090
C  2.165563  -2.863980  -1.587524
C  1.615801  -2.759858  2.369159
C  0.529052  -3.426010  1.779250
C  0.754382  -4.491076  0.900145
C  2.471363  -0.856633  3.637904
C  1.392271  -1.611447  3.129423
C  3.247279  1.244273  2.908011
C  2.238359  0.580262  3.724835
C  4.681734  1.477788  0.481751
C  3.499624  2.201922  0.676487
C  2.786902  2.069578  1.866824
C  4.936488  1.033735  -0.882519
C  3.040140  -0.330540  -2.433918
C  3.474881  0.933441  -2.880838
C  4.302895  1.698140  -1.953091
C  1.389279  -2.122605  -2.485705
C  1.817802  -0.852675  -2.867801
C  0.357952  -4.496910  -1.413439
C  -0.433756  -3.678460  -2.235434
C  0.133384  -2.590324  -2.899553
C  -0.255883  -4.752200  -0.119972
C  -0.778401  -2.947658  1.964570
C  -1.830287  -3.456678  1.209108
C  -1.524178  -4.180363  0.059169
C  0.076507  -1.143303  3.258433
C  -1.009812  -1.859812  2.795449
C  0.927585  0.989806  3.479455
C  -0.125023  0.148188  3.675032
C  1.526800  2.669659  1.952748
C  0.617382  2.170694  2.856782
C  2.962648  2.976205  -0.364274
C  1.795934  3.728852  -0.164749
C  1.121065  3.641943  1.050729
C  3.533523  2.895659  -1.637977
C  2.473613  1.855412  -3.427368
C  2.635496  3.147695  -2.762380
C  0.951347  -0.033069  -3.571157
C  1.184253  1.334949  -3.500807
C  -0.604368  -1.914426  -3.884073
C  -0.192187  -0.548246  -4.198674
C  -1.822994  -3.889531  -2.271785
C  -2.661682  -2.906883  -2.956611
C  -2.062056  -1.924453  -3.772681
C  -2.442692  -4.205396  -0.993397
C  -3.156098  -3.134473  1.530799
C  -4.072313  -2.982608  0.400749
C  -3.674129  -3.429032  -0.879112
C  -2.307825  -1.381182  3.031370
C  -3.408580  -2.025185  2.455122
C  -1.359196  0.649127  4.084423
C  -2.511201  -0.179378  3.740025
C  -0.653973  2.732714  2.997706
C  -1.655644  2.034241  3.704793
C  -0.016832  4.421961  1.306202
C  -0.960663  3.917521  2.315099
C  1.248805  4.461355  -1.221084
C  -0.170298  4.812861  -1.114958
C  -0.789249  4.877312  0.156182
C  1.483477  3.952731  -2.566739
C  0.071060  2.136683  -3.332690
C  0.175652  3.494678  -3.039869
C  -1.358708  0.310539  -4.042181
C  -1.152973  1.486843  -3.299245
C  -2.482327  -0.530447  -3.644504
C  -3.687514  -2.488856  -1.999163
C  -3.793541  -1.130136  -1.680750
C  -3.176109  -0.171310  -2.482930
C  -4.664175  -1.651205  0.514365
C  -4.438741  -0.723255  -0.505192
C  -4.417491  -1.158210  1.862392
C  -3.531522  0.699878  3.173567
C  -4.237144  0.230059  2.050234
C  -2.998371  2.065752  3.140024
C  -2.296761  3.939389  1.730212
C  -3.158403  2.842409  1.976212
C  -2.145525  4.352555  0.341283
C  -0.851482  4.052593  -2.156938
C  -1.883908  3.185238  -1.752494
C  -2.643045  3.471213  -0.618880
C  -2.097127  1.964828  -2.398846
C  -3.169151  1.152228  -2.044393
C  -4.774923  0.624816  -0.291024
C  -4.161279  1.608617  -1.171813
C  -4.694193  1.133828  1.074405
C  -4.124764  2.481771  1.017523
C  -3.849098  2.795537  -0.381555
