100
# Created by libgraph from Fullerene (http://tinyurl.com/fullerenes)
C  3.591879  1.361797  2.896709
C  3.865732  2.557434  2.114803
C  4.475869  2.065574  0.885363
C  5.099768  0.778657  1.185820
C  4.536833  0.325348  2.458700
C  5.288934  -0.130356  0.125714
C  5.012963  -1.554013  0.326024
C  4.466978  -1.999832  1.545011
C  4.211497  -1.036161  2.625249
C  3.690324  2.164867  -0.267098
C  3.815469  1.206924  -1.281669
C  4.798492  0.216519  -1.206002
C  2.853325  3.541493  2.041977
C  2.534431  4.049847  0.717798
C  2.706708  3.159543  -0.343871
C  2.252071  0.989857  3.040683
C  1.236584  1.950660  2.894195
C  1.555821  3.296916  2.666247
C  2.910318  -1.358896  3.201826
C  1.917052  -0.356655  3.201897
C  3.354132  -2.953239  1.526259
C  2.494959  -2.651951  2.663241
C  4.466644  -2.076727  -0.930900
C  3.255687  -2.779196  -0.908126
C  2.713072  -3.203112  0.301465
C  4.584962  -1.027266  -1.936330
C  2.881879  1.183431  -2.319861
C  2.939485  0.201812  -3.324451
C  3.695246  -1.015564  -3.030979
C  1.823286  3.180561  -1.422087
C  1.813929  2.082996  -2.274664
C  1.238712  4.721274  0.805750
C  0.464727  4.917814  -0.364631
C  0.891788  4.218890  -1.572349
C  0.571549  4.127247  1.960201
C  -0.101486  1.534659  2.840132
C  -1.079137  2.376515  2.333835
C  -0.688369  3.564033  1.729185
C  0.563113  -0.711299  3.212216
C  -0.440041  0.225767  3.138315
C  1.127957  -2.785052  2.407946
C  0.216262  -2.028114  3.076543
C  1.433156  -3.762176  0.276172
C  0.614607  -3.515733  1.362720
C  2.514465  -2.969270  -2.085981
C  1.443048  -3.889875  -2.139985
C  0.954995  -4.405867  -0.865252
C  2.769957  -2.139752  -3.187430
C  1.681375  -0.195986  -3.953317
C  1.568529  -1.650286  -3.851031
C  0.664175  1.795156  -2.986049
C  0.564732  0.550440  -3.573003
C  -0.301451  3.933566  -2.380076
C  -0.423270  2.671686  -2.978852
C  -0.994288  4.785007  -0.313979
C  -1.471399  4.365624  -1.623434
C  -1.536093  4.092225  0.764393
C  -2.418884  1.961193  2.297338
C  -3.391195  2.783491  1.716615
C  -2.906068  3.811888  0.799037
C  -1.772961  -0.201215  3.179491
C  -2.764837  0.670683  2.725966
C  -1.043085  -2.538676  3.388560
C  -2.082820  -1.527032  3.546295
C  -0.752315  -3.815179  1.346630
C  -1.550261  -3.569500  2.483946
C  -0.499325  -4.568016  -0.957718
C  -1.318278  -4.202677  0.133720
C  0.278133  -3.493836  -2.923267
C  -0.917848  -3.943419  -2.204396
C  0.340483  -2.172816  -3.386538
C  -0.693797  -0.000637  -3.591612
C  -0.778139  -1.341714  -3.257424
C  -1.673746  2.240854  -3.461164
C  -1.815197  0.816836  -3.780182
C  -2.620187  3.537449  -1.628160
C  -2.849998  2.656605  -2.706047
C  -3.485125  3.531734  -0.510693
C  -4.526716  2.130945  1.081491
C  -4.378923  2.386538  -0.352139
C  -4.078894  0.211637  2.588927
C  -4.866041  0.837803  1.534135
C  -3.325032  -2.096726  3.024461
C  -4.307445  -1.231390  2.506813
C  -2.980552  -3.327327  2.299073
C  -2.705118  -4.087865  -0.058959
C  -3.546781  -3.583172  1.034102
C  -2.007055  -3.062110  -2.084968
C  -3.103813  -3.424654  -1.288573
C  -1.936780  -1.780644  -2.631243
C  -3.039314  0.335087  -3.153163
C  -2.964652  -0.861112  -2.417642
C  -3.678090  1.469655  -2.486941
C  -4.175809  1.281864  -1.189104
C  -5.040846  -0.195209  0.528320
C  -4.385352  -0.010182  -0.691130
C  -4.899765  -1.493032  1.194761
C  -4.483648  -2.616889  0.453989
C  -4.097543  -2.412966  -0.939040
C  -3.848320  -1.104026  -1.368545
