100
# Created by libgraph from Fullerene (http://tinyurl.com/fullerenes)
C  5.736773  -1.066962  0.621605
C  5.735178  -0.918602  -0.831910
C  5.731943  0.509682  -1.140048
C  5.730938  1.244116  0.122993
C  5.733956  0.269742  1.211699
C  5.014812  2.444908  0.247778
C  4.263771  2.720097  1.478714
C  4.261129  1.769927  2.535617
C  5.020866  0.521410  2.394073
C  5.016968  0.998037  -2.244767
C  4.264336  2.253015  -2.127656
C  4.258673  2.965168  -0.897712
C  5.022933  -1.819746  -1.638583
C  4.270553  -1.321844  -2.796601
C  4.262979  0.067986  -3.093969
C  5.026862  -2.115000  1.228369
C  4.277410  -3.064114  0.396135
C  4.270526  -2.916588  -1.017495
C  4.276253  -0.566357  3.039878
C  4.273452  -1.866041  2.463344
C  3.015302  1.441047  3.240077
C  3.029517  -0.000495  3.554829
C  3.015953  3.381873  1.095468
C  1.826973  2.864042  1.636409
C  1.834975  1.937764  2.676125
C  3.011458  3.532436  -0.369495
C  3.017357  2.090665  -2.875928
C  1.828023  2.443615  -2.216365
C  1.834840  3.147297  -1.014910
C  3.015010  0.743618  -3.471117
C  3.024853  -2.085686  -2.874347
C  1.834516  -1.351155  -3.006679
C  1.839493  0.009060  -3.304294
C  3.023386  -3.068526  -1.777560
C  3.032003  -3.378161  1.097607
C  1.841712  -3.278136  0.357336
C  1.847388  -3.139537  -1.028279
C  3.028835  -2.641558  2.373107
C  1.844461  -0.681255  3.234544
C  1.851169  -1.954522  2.673182
C  0.611826  1.313902  2.935423
C  0.626134  -0.013763  3.234368
C  0.592664  3.070347  1.010302
C  -0.628316  2.792687  1.602747
C  -0.607795  1.890226  2.618133
C  0.611914  3.198654  -0.342424
C  0.594574  1.909614  -2.605227
C  -0.627177  2.385769  -2.158012
C  -0.607636  3.074239  -0.986541
C  0.615717  0.662770  -3.145383
C  0.601665  -1.888055  -2.619951
C  -0.620653  -1.317026  -2.934985
C  -0.602703  0.010032  -3.226793
C  0.623394  -2.787783  -1.601656
C  0.607848  -3.078440  0.986449
C  -0.614032  -3.201828  0.344873
C  -0.595224  -3.068906  -1.007256
C  0.628162  -2.388098  2.156719
C  -0.608134  -0.657052  3.139850
C  -0.590661  -1.905153  2.602023
C  -1.839428  1.358933  2.996496
C  -1.828563  0.001015  3.287035
C  -1.851807  3.149017  1.025358
C  -3.038934  3.096776  1.758446
C  -3.019457  2.107427  2.850439
C  -1.841250  3.274272  -0.361810
C  -1.849383  1.944402  -2.675415
C  -3.037118  2.623715  -2.399713
C  -3.020896  3.357686  -1.121852
C  -1.836938  0.664379  -3.224309
C  -1.842301  -1.947145  -2.676621
C  -3.030130  -1.476056  -3.238282
C  -3.015291  -0.033739  -3.540465
C  -1.829541  -2.865205  -1.629344
C  -1.836500  -3.150466  1.022702
C  -3.023727  -3.540623  0.401118
C  -3.007970  -3.382697  -1.063958
C  -1.824880  -2.435261  2.217532
C  -3.019140  -0.709306  3.479763
C  -3.003709  -2.056495  2.883323
C  -4.266480  1.335459  2.789106
C  -4.267297  -0.051794  3.093489
C  -4.280699  2.923823  1.005577
C  -5.025937  1.826325  1.632672
C  -4.270943  3.059737  -0.409116
C  -4.278135  1.853462  -2.470834
C  -5.026474  2.109761  -1.235082
C  -4.266461  0.550398  -3.038067
C  -4.271468  -1.783396  -2.529075
C  -5.021624  -0.529885  -2.391573
C  -4.259597  -2.725637  -1.465230
C  -4.265860  -2.961673  0.911632
C  -5.016194  -2.445466  -0.238717
C  -4.255270  -2.239686  2.135721
C  -5.015235  -0.988713  2.247624
C  -5.737115  0.920641  0.830231
C  -5.732328  -0.506849  1.141495
C  -5.737798  1.065706  -0.623532
C  -5.735105  -0.272157  -1.210719
C  -5.732120  -1.244046  -0.119876
