100
# Created by libgraph from Fullerene (http://tinyurl.com/fullerenes)
C  4.663143  -1.078768  1.455380
C  5.061680  -0.875693  0.069451
C  5.084358  0.563622  -0.171001
C  4.747531  1.233567  1.082744
C  4.622368  0.220151  2.125561
C  3.773165  2.231205  0.981408
C  2.770926  2.337915  1.951440
C  2.894751  1.661253  3.172471
C  3.698938  0.441283  3.168144
C  4.492918  1.046125  -1.353003
C  4.078578  2.394019  -1.426132
C  3.763483  3.043440  -0.157778
C  4.449534  -1.723812  -0.872058
C  4.219306  -1.273744  -2.185336
C  4.243666  0.170104  -2.428143
C  3.611037  -1.973337  1.669111
C  3.548317  -3.147304  0.916369
C  3.992028  -2.996325  -0.463577
C  2.792687  -0.649434  3.512117
C  2.581977  -1.637764  2.545641
C  1.684696  1.369710  3.935116
C  1.617198  -0.066622  4.144253
C  1.595203  3.036389  1.648745
C  0.442467  2.787372  2.395051
C  0.480992  1.951857  3.516700
C  2.620777  3.927658  -0.364225
C  1.539210  3.880363  0.530743
C  3.021225  2.745732  -2.365169
C  2.212821  3.800789  -1.752701
C  3.103050  0.498970  -3.276553
C  2.370821  1.650935  -2.939113
C  3.085350  -1.836332  -2.916960
C  2.349594  -0.729094  -3.517095
C  2.992765  -3.640577  -1.302690
C  2.358646  -2.830381  -2.245912
C  2.303976  -3.911205  0.902486
C  2.140287  -4.457925  -0.438326
C  1.324976  -2.229477  2.370777
C  1.182761  -3.321671  1.503607
C  0.344565  -0.577594  3.849031
C  0.198170  -1.655495  2.969475
C  -0.714662  1.559540  4.147195
C  -0.773354  0.119530  4.333204
C  -0.780869  3.260170  1.928480
C  -1.937228  2.607393  2.347110
C  -1.997179  1.968182  3.584357
C  0.360530  4.586226  0.207545
C  -0.843509  4.280667  0.970002
C  0.824004  3.777539  -1.960033
C  -0.000865  4.606672  -1.202896
C  0.978423  1.676580  -3.058995
C  0.252975  2.830889  -2.799895
C  0.972319  -0.695816  -3.269800
C  0.285457  0.506800  -3.297837
C  0.978050  -2.944357  -2.419008
C  0.276842  -1.829369  -2.865819
C  0.825905  -4.779377  -0.839375
C  0.314886  -4.113181  -2.028468
C  -0.098798  -3.758752  1.148382
C  -0.259088  -4.701289  0.128993
C  -1.079759  -2.081637  2.587930
C  -1.228887  -3.177189  1.730992
C  -2.101361  -0.338067  3.939066
C  -2.202505  -1.342561  2.970659
C  -2.924367  0.849214  3.722190
C  -2.984704  2.501880  1.442332
C  -4.118646  1.742829  1.733095
C  -4.015786  0.778201  2.827297
C  -1.956118  4.172532  0.026135
C  -2.821053  3.079052  0.186573
C  -1.451515  4.452373  -1.316867
C  -1.065630  2.957563  -3.262441
C  -1.974045  3.730447  -2.414770
C  -1.103225  0.535281  -3.422701
C  -1.771361  1.739615  -3.669594
C  -1.115499  -1.786265  -2.781601
C  -1.814539  -0.636333  -3.164899
C  -1.146402  -4.052137  -1.909124
C  -1.796719  -2.842486  -2.187154
C  -1.499103  -4.659243  -0.629276
C  -2.511602  -3.622832  1.375719
C  -2.654260  -4.215717  0.048698
C  -3.410764  -1.546520  2.299754
C  -3.640872  -2.718226  1.572413
C  -4.360447  -0.523626  2.263491
C  -4.788642  1.094234  0.610852
C  -4.973021  -0.310806  0.956792
C  -3.457264  2.480200  -0.900808
C  -4.319071  1.394933  -0.679270
C  -3.156905  2.896629  -2.200929
C  -3.152455  1.850495  -3.216909
C  -3.213634  -0.635932  -3.170894
C  -3.871709  0.656055  -2.983197
C  -3.108661  -2.628045  -1.762368
C  -3.893431  -1.609657  -2.321036
C  -3.589960  -3.362140  -0.678895
C  -4.330628  -2.572254  0.295806
C  -4.717932  -1.259750  -0.054999
C  -4.638310  0.544947  -1.743466
C  -4.762991  -0.873008  -1.411790
