100
# Created by libgraph from Fullerene (http://tinyurl.com/fullerenes)
C  4.335619  -1.214843  2.078320
C  5.021551  -0.745361  0.884284
C  4.830157  -1.755605  -0.151553
C  4.088656  -2.868621  0.439680
C  3.939038  -2.606920  1.866800
C  2.981613  -3.319949  -0.288757
C  1.804955  -3.698473  0.374389
C  1.815085  -3.886108  1.761689
C  2.798918  -3.117092  2.519840
C  4.449031  -1.305739  -1.427897
C  3.740794  -2.161980  -2.296338
C  3.045048  -3.290720  -1.685964
C  4.842021  0.612130  0.557217
C  4.957930  1.028085  -0.777180
C  4.697471  0.027478  -1.809425
C  3.404081  -0.340044  2.642819
C  3.674141  1.030526  2.675400
C  4.474045  1.529224  1.560837
C  2.034955  -2.193059  3.347854
C  2.172085  -0.831346  3.067630
C  0.553848  -3.783592  2.483727
C  0.684483  -2.721143  3.465951
C  0.598668  -3.786654  -0.339674
C  -0.625020  -3.782007  0.346484
C  -0.636742  -3.742547  1.744813
C  1.813793  -3.517427  -2.429378
C  0.616199  -3.751125  -1.737416
C  2.825810  -1.551085  -3.251647
C  1.674326  -2.429545  -3.380084
C  3.740396  0.602380  -2.744905
C  2.625704  -0.186084  -3.045549
C  4.314592  2.273226  -1.193074
C  3.530769  1.995878  -2.389138
C  3.923733  2.820930  1.155986
C  3.707556  3.076270  -0.210845
C  2.564743  1.952920  2.881028
C  2.808485  3.124686  2.047474
C  1.073989  0.034963  3.099434
C  1.273777  1.400422  2.876533
C  -0.410732  -1.849373  3.414431
C  -0.222879  -0.476822  3.225493
C  -1.835007  -3.505196  2.432105
C  -1.689695  -2.418491  3.383896
C  -1.829288  -3.687703  -0.369766
C  -3.003623  -3.301956  0.292045
C  -3.065053  -3.272425  1.688403
C  -0.575838  -3.784748  -2.479546
C  -1.838199  -3.878412  -1.757476
C  0.396245  -1.861028  -3.408702
C  -0.702545  -2.723630  -3.464113
C  1.330237  0.350216  -3.023499
C  0.221204  -0.485600  -3.224666
C  2.229921  2.501742  -2.339386
C  1.136795  1.692344  -2.671541
C  2.798467  4.082561  -0.604870
C  2.050539  3.788559  -1.818322
C  1.684891  3.731384  1.473219
C  1.831223  4.565148  0.367523
C  0.177054  2.191064  2.525734
C  0.400157  3.423621  1.915948
C  -1.329592  0.363065  3.023625
C  -1.124804  1.702807  2.669012
C  -2.836040  -1.533743  3.253358
C  -2.626085  -0.168371  3.049752
C  -3.754392  -2.140049  2.297872
C  -4.107543  -2.847835  -0.438625
C  -4.842065  -1.729898  0.151927
C  -4.457505  -1.281311  1.428087
C  -2.818363  -3.105952  -2.517592
C  -3.955856  -2.588231  -1.865672
C  -2.050087  -2.188167  -3.348211
C  -1.074773  0.033194  -3.100150
C  -2.177491  -0.825636  -3.071503
C  -0.163473  2.186492  -2.528497
C  -1.263006  1.400141  -2.876020
C  0.688629  4.284823  -1.647283
C  -0.376570  3.422267  -1.920434
C  0.626773  4.962907  -0.355959
C  -0.662546  4.289614  1.644728
C  -0.596522  4.966005  0.352273
C  -2.215972  2.515311  2.333441
C  -2.027287  3.800292  1.814737
C  -3.737913  0.622439  2.745439
C  -3.518786  2.014225  2.387571
C  -4.697240  0.053117  1.808692
C  -5.026753  -0.719107  -0.884502
C  -4.837781  0.637135  -0.558210
C  -4.951053  1.054697  0.775652
C  -4.343877  -1.193757  -2.078140
C  -3.405838  -0.326929  -2.642396
C  -2.550703  1.962063  -2.881343
C  -3.665708  1.046505  -2.675663
C  -1.661575  3.738349  -1.479781
C  -2.788839  3.136671  -2.050219
C  -1.802027  4.573148  -0.371978
C  -2.772571  4.097718  0.601152
C  -4.299867  2.295867  1.190529
C  -3.686414  3.096121  0.207981
C  -4.463162  1.551025  -1.561981
C  -3.905503  2.839683  -1.157945
