100
# Created by libgraph from Fullerene (http://tinyurl.com/fullerenes)
C  4.130919  -1.923429  1.485083
C  3.718192  -3.180387  0.873726
C  4.027073  -3.090672  -0.540223
C  4.850091  -1.897359  -0.751359
C  5.057114  -1.275096  0.558214
C  4.599095  -1.090681  -1.879489
C  4.771226  0.363316  -1.779565
C  5.156912  0.952393  -0.555034
C  5.247342  0.117612  0.643449
C  2.879143  -3.288213  -1.316240
C  2.499474  -2.316341  -2.237670
C  3.409201  -1.350488  -2.698151
C  2.422853  -3.645969  1.161493
C  1.863225  -4.661005  0.386306
C  2.045132  -4.388112  -1.029108
C  3.137250  -1.110322  2.043026
C  1.895361  -1.661721  2.367103
C  1.629927  -3.000641  2.101866
C  4.535701  0.831387  1.697432
C  3.345312  0.267111  2.162403
C  4.567792  2.233253  -0.134510
C  4.482619  2.236689  1.316613
C  3.694752  0.990639  -2.541908
C  2.981554  2.037601  -1.946276
C  3.438917  2.687772  -0.812115
C  2.868820  -0.061941  -3.125832
C  1.148929  -2.238574  -2.581214
C  0.631139  -1.013035  -2.966453
C  1.475004  0.088313  -3.023538
C  0.730761  -4.434930  -1.663017
C  0.297798  -3.330157  -2.405812
C  0.466686  -5.035476  0.613880
C  -0.236894  -4.862460  -0.657572
C  0.512593  -3.633883  2.662829
C  -0.156052  -4.618686  1.809737
C  0.867078  -0.848476  2.826448
C  -0.377351  -1.415544  3.124376
C  -0.527499  -2.800266  3.266912
C  2.319410  1.090169  2.636532
C  1.053730  0.536243  2.838826
C  3.517646  3.087901  1.904214
C  2.537489  2.466842  2.786519
C  2.657172  3.724572  -0.286863
C  2.757947  4.025131  1.072315
C  1.713745  2.378215  -2.397273
C  1.227814  3.679513  -2.277695
C  1.699136  4.376562  -1.087069
C  0.903726  1.342375  -2.816018
C  -0.744284  -0.869482  -3.142337
C  -1.306620  0.402134  -2.986372
C  -0.476899  1.519291  -2.876055
C  -1.039014  -3.280810  -2.836703
C  -1.542005  -2.003904  -3.338150
C  -1.476365  -4.195307  -0.668317
C  -2.020340  -3.808953  -1.901488
C  -1.564333  -4.237024  1.757014
C  -2.109037  -3.832379  0.528981
C  -1.818296  -3.377750  2.907042
C  -1.497553  -0.585224  3.141573
C  -2.791263  -1.118758  3.240121
C  -2.943828  -2.529151  2.896492
C  -0.060399  1.364284  2.910805
C  -1.319335  0.780024  2.914896
C  1.356312  3.331174  2.815123
C  0.083563  2.750793  2.829229
C  1.516534  4.333457  1.769385
C  0.526911  4.911418  -0.392539
C  0.383573  4.632452  0.978853
C  -0.212072  3.891979  -2.383365
C  -0.638816  4.707987  -1.255778
C  -1.029303  2.790483  -2.679863
C  -2.682146  0.529481  -2.799711
C  -3.291661  1.785178  -2.737299
C  -2.418482  2.956041  -2.643405
C  -2.934018  -1.884450  -2.919505
C  -3.420757  -0.623205  -2.544813
C  -3.180110  -2.926779  -1.931871
C  -3.235890  -2.989724  0.505670
C  -3.739021  -2.510573  -0.713993
C  -3.799186  -2.558694  1.715612
C  -3.870869  -0.384362  2.578807
C  -4.574920  -1.317023  1.706483
C  -2.404629  1.539640  2.526105
C  -3.506442  0.854900  2.045488
C  -1.034166  3.572556  2.616113
C  -2.340119  2.933904  2.486195
C  -0.899635  4.560977  1.556086
C  -1.873208  4.332950  -0.688431
C  -2.080258  4.448700  0.696753
C  -2.867435  3.755199  -1.511292
C  -4.370475  1.948683  -1.769767
C  -3.931080  3.005890  -0.853968
C  -4.598092  -0.536932  -1.793832
C  -4.975984  0.772948  -1.261178
C  -4.746946  -1.530352  -0.737059
C  -5.093522  -0.821834  0.490449
C  -4.124322  1.384107  0.923249
C  -5.020777  0.614023  0.185128
C  -3.014958  3.520811  1.334716
C  -3.723023  2.651457  0.481426
