100
# Created by libgraph from Fullerene (http://tinyurl.com/fullerenes)
C  3.152261  -3.503144  1.064419
C  3.050734  -4.042025  -0.284984
C  3.703377  -3.059096  -1.150926
C  4.490607  -2.162425  -0.310922
C  4.259197  -2.545226  1.077519
C  4.437534  -0.803482  -0.668692
C  4.432086  0.191395  0.322133
C  4.628584  -0.162540  1.664028
C  4.297780  -1.532821  2.054450
C  2.936320  -2.450777  -2.151219
C  3.448665  -1.334002  -2.834321
C  4.297681  -0.467192  -2.024647
C  1.814141  -4.612903  -0.660603
C  1.186204  -4.123193  -1.881133
C  1.626742  -2.883850  -2.371903
C  1.962087  -3.123552  1.693866
C  0.756055  -3.741558  1.336259
C  0.738084  -4.701358  0.321146
C  3.169956  -1.438089  2.970906
C  1.959834  -2.056206  2.593007
C  4.109088  0.723588  2.699777
C  3.084470  -0.045838  3.407309
C  4.151412  1.527881  -0.014758
C  4.098135  2.513285  0.982429
C  3.869334  2.074827  2.356258
C  3.996038  0.918705  -2.365828
C  3.845448  1.863905  -1.340113
C  2.530690  -0.474702  -3.576709
C  2.915196  0.913514  -3.340176
C  0.735050  -2.000685  -2.980372
C  1.176884  -0.778628  -3.454511
C  -0.263857  -4.302913  -1.735108
C  -1.090672  -3.234967  -2.105820
C  -0.628839  -2.265390  -2.980530
C  -0.507041  -4.878471  -0.414485
C  -0.452928  -3.325863  1.909907
C  -1.649790  -3.975801  1.588649
C  -1.711438  -4.584172  0.262521
C  0.726093  -1.540612  3.013661
C  -0.469711  -2.184233  2.712477
C  1.808106  0.505662  3.434567
C  0.692272  -0.291005  3.602253
C  2.612848  2.689140  2.779805
C  1.577377  1.833274  3.150388
C  3.273082  3.698869  0.755240
C  2.243338  3.704822  1.793384
C  3.290907  3.117625  -1.655195
C  2.922375  4.025929  -0.569584
C  1.887457  1.854101  -3.124687
C  2.219456  3.125374  -2.645045
C  0.215416  0.196747  -3.650840
C  0.542954  1.485808  -3.261638
C  -1.534353  -1.490420  -3.726830
C  -1.068006  -0.154844  -4.086168
C  -2.340107  -3.039633  -1.526463
C  -3.113659  -1.949655  -1.948134
C  -2.889385  -1.361414  -3.202796
C  -2.743894  -3.850445  -0.464149
C  -2.904014  -3.256076  1.795088
C  -3.602954  -3.203917  0.519685
C  -1.683839  -1.604112  3.106846
C  -2.868336  -2.054196  2.519080
C  -0.460588  0.231264  4.201473
C  -1.699471  -0.513302  3.993495
C  0.246072  2.233400  3.103300
C  -0.724794  1.638643  3.925852
C  0.904114  3.749342  1.359756
C  -0.101051  3.108758  2.088669
C  1.563462  4.494792  -0.840914
C  0.572172  4.323354  0.133235
C  1.160287  3.995590  -2.146678
C  -0.483451  2.339776  -2.864574
C  -0.167517  3.545531  -2.233581
C  -2.134215  0.793369  -3.776716
C  -1.812837  1.905735  -2.978398
C  -3.323744  0.016951  -3.417712
C  -4.031536  -1.390952  -1.054675
C  -4.748279  -0.239059  -1.396238
C  -4.266458  0.562100  -2.524291
C  -4.148724  -1.940795  0.226713
C  -4.008525  -1.241015  2.543317
C  -4.709065  -1.186127  1.268410
C  -2.769652  0.468604  3.814135
C  -3.909781  0.120513  3.061680
C  -2.125029  1.748043  3.528409
C  -1.438323  3.226585  1.717971
C  -2.371686  2.350914  2.286076
C  -0.767909  4.603248  -0.197874
C  -1.808063  4.123314  0.710087
C  -1.166276  4.249414  -1.551306
C  -2.796966  2.524237  -2.199839
C  -2.516185  3.699796  -1.488594
C  -4.045375  1.914712  -2.023509
C  -5.124438  0.675916  -0.322711
C  -4.536549  1.971861  -0.653829
C  -5.075532  0.203697  1.005227
C  -4.378961  1.013782  2.000140
C  -3.501723  2.002457  1.541803
C  -2.952120  3.718723  -0.099617
C  -3.689817  2.583806  0.283543
