100
# Created by libgraph from Fullerene (http://tinyurl.com/fullerenes)
C  4.613140  -1.006043  1.490464
C  5.071185  -0.458419  0.219557
C  4.969734  0.995212  0.304458
C  4.476324  1.334880  1.635827
C  4.358507  0.103194  2.410296
C  3.433414  2.266071  1.661093
C  2.338760  2.082006  2.513385
C  2.384843  1.111954  3.529459
C  3.326609  0.002191  3.364251
C  4.426673  1.690753  -0.791699
C  3.914804  2.993879  -0.607383
C  3.461791  3.320405  0.740193
C  4.614053  -1.117160  -0.936114
C  4.409044  -0.397648  -2.128371
C  4.320203  1.061859  -2.047310
C  3.691679  -2.057322  1.421892
C  3.827540  -3.018273  0.410920
C  4.283517  -2.488565  -0.867750
C  2.548014  -1.233200  3.404428
C  2.594900  -2.085232  2.284658
C  1.121974  0.548811  3.999150
C  1.222711  -0.905211  3.921672
C  1.155358  2.798409  2.271203
C  -0.043170  2.330268  2.804396
C  -0.044019  1.117250  3.474727
C  2.287451  4.180287  0.634098
C  1.148384  3.888875  1.398396
C  2.896743  3.477305  -1.531841
C  1.977305  4.329689  -0.776768
C  3.205015  1.489158  -2.885860
C  2.365067  2.490519  -2.364283
C  3.365195  -0.865196  -3.037766
C  2.566828  0.293122  -3.428349
C  3.378485  -2.996626  -1.888080
C  2.701544  -2.037470  -2.643497
C  2.724995  -3.943832  0.142089
C  2.594626  -4.086460  -1.302445
C  1.498768  -2.895267  1.953573
C  1.545962  -3.765882  0.869134
C  0.129251  -1.547389  3.320624
C  0.297588  -2.726677  2.628311
C  -1.228419  0.400893  3.457346
C  -1.126361  -0.963509  3.264409
C  -1.256238  2.986342  2.548468
C  -2.483524  2.411730  2.934149
C  -2.455267  1.060649  3.485179
C  -0.032638  4.617136  1.156875
C  -1.267563  4.159942  1.784727
C  0.606406  4.270797  -1.084045
C  -0.316086  4.893071  -0.242871
C  0.981590  2.447528  -2.565205
C  0.151924  3.471492  -2.125028
C  1.184253  0.176225  -3.256582
C  0.398542  1.305444  -3.075565
C  1.338826  -2.203600  -2.895074
C  0.573304  -1.063326  -3.126557
C  1.310740  -4.391117  -1.813186
C  0.746091  -3.471300  -2.793646
C  0.353334  -4.358898  0.444158
C  0.217964  -4.732602  -0.897105
C  -0.769670  -3.627465  2.508290
C  -0.743775  -4.471433  1.319930
C  -2.235094  -1.706702  2.860869
C  -2.127978  -3.091220  2.654733
C  -3.588260  0.320115  2.936530
C  -3.405873  -1.017809  2.537835
C  -3.549155  2.467675  1.945322
C  -4.210115  1.167173  1.926078
C  -2.318317  4.184611  0.771858
C  -3.176675  3.070233  0.735662
C  -1.745649  4.685744  -0.477011
C  -1.154430  3.591689  -2.626216
C  -2.158562  4.121434  -1.702043
C  -0.984482  1.257440  -3.260692
C  -1.745015  2.430132  -3.294523
C  -0.815112  -1.128905  -3.080811
C  -1.602602  0.009780  -3.266941
C  -0.713061  -3.517934  -2.669689
C  -1.415558  -2.308288  -2.688957
C  -1.040687  -4.373898  -1.535468
C  -2.050981  -4.358599  0.683158
C  -2.053995  -3.941412  -0.655153
C  -2.963026  -3.686422  1.615696
C  -4.357058  -1.616443  1.702784
C  -4.046585  -2.922949  1.118755
C  -4.476521  0.569115  0.684758
C  -4.918086  -0.764677  0.660287
C  -3.578405  2.511554  -0.485744
C  -4.220146  1.260067  -0.509823
C  -3.264414  3.165567  -1.686758
C  -3.141582  2.339406  -2.882827
C  -2.999605  -0.103548  -3.321309
C  -3.763982  1.073260  -2.914094
C  -2.703962  -2.216944  -2.181478
C  -3.605593  -1.271045  -2.679276
C  -2.997614  -2.995737  -1.072570
C  -4.150234  -2.755025  -0.324645
C  -4.884609  -1.511855  -0.592153
C  -4.528695  0.665044  -1.741389
C  -4.652507  -0.792852  -1.784163
