100
# Created by libgraph from Fullerene (http://tinyurl.com/fullerenes)
C  4.254886  -2.516847  0.280075
C  4.526807  -1.973583  -1.043925
C  5.004845  -0.606332  -0.868344
C  5.064272  -0.327288  0.564361
C  4.717935  -1.551706  1.278733
C  4.539767  0.900575  0.992959
C  3.905399  1.010044  2.240301
C  3.748272  -0.122745  3.061240
C  4.058198  -1.446698  2.517020
C  4.492989  0.384065  -1.721892
C  4.503769  1.732752  -1.312438
C  4.603489  1.997570  0.121310
C  3.580281  -2.245381  -2.049516
C  3.431130  -1.353587  -3.129417
C  3.910027  0.019069  -2.950780
C  3.017071  -3.141285  0.462834
C  2.465580  -3.891319  -0.590841
C  2.737580  -3.373124  -1.930521
C  2.898438  -2.299950  2.753707
C  2.298137  -2.926555  1.642405
C  2.514715  -0.226644  3.835279
C  1.999686  -1.586931  3.661291
C  3.356916  2.238515  2.654240
C  2.128843  2.151437  3.439575
C  1.628558  0.854596  3.684313
C  3.822345  3.196003  0.422521
C  3.204842  3.327808  1.687414
C  3.496500  2.632821  -1.860020
C  3.046290  3.510182  -0.775023
C  2.899122  0.923947  -3.486952
C  2.534230  2.019022  -2.679899
C  2.140012  -1.297075  -3.811853
C  1.823595  0.114011  -4.055911
C  1.474518  -3.342332  -2.663651
C  1.133137  -2.128854  -3.285520
C  1.053083  -4.274689  -0.539735
C  0.451656  -3.989297  -1.838187
C  0.932575  -3.230971  1.651583
C  0.322320  -3.835637  0.569932
C  0.633581  -1.692953  3.381292
C  0.131968  -2.756086  2.676572
C  0.247243  0.614089  3.638893
C  -0.248648  -0.668750  3.630864
C  1.186801  3.145844  2.921991
C  -0.132197  2.712801  2.707612
C  -0.633788  1.642683  3.403186
C  1.817212  3.797967  1.780602
C  1.663681  3.627623  -0.631595
C  1.072111  3.810466  0.600481
C  1.192885  2.421937  -2.590296
C  0.813637  3.403630  -1.702102
C  0.512347  0.486720  -3.746890
C  0.201299  1.728890  -3.251304
C  -0.195286  -1.678639  -3.272534
C  -0.506712  -0.430366  -3.753229
C  -0.810093  -3.374965  -1.748530
C  -1.187911  -2.382522  -2.624795
C  -1.071445  -3.807691  0.549684
C  -1.661494  -3.612486  -0.681287
C  -1.190264  -3.180962  2.888909
C  -1.816855  -3.814768  1.734129
C  -1.631490  -0.899841  3.673930
C  -2.133708  -2.190906  3.415523
C  -2.001982  1.545428  3.677746
C  -2.516770  0.183545  3.835657
C  -0.939827  3.205283  1.691793
C  -2.302911  2.907659  1.678096
C  -2.902894  2.268733  2.779067
C  -0.321997  3.817819  0.618000
C  -0.451215  4.011114  -1.792016
C  -1.051358  4.275279  -0.488764
C  -1.130462  2.170154  -3.261700
C  -1.474429  3.373304  -2.625635
C  -1.821162  -0.066872  -4.058785
C  -2.137370  1.340718  -3.797825
C  -2.531494  -1.986213  -2.706466
C  -2.897773  -0.883793  -3.499296
C  -3.044232  -3.500677  -0.816316
C  -3.493523  -2.611692  -1.891647
C  -3.204898  -3.346231  1.647672
C  -3.820985  -3.200219  0.384270
C  -3.359670  -2.268731  2.627009
C  -3.750372  0.088037  3.059661
C  -3.906893  -1.036042  2.225972
C  -4.061574  1.417641  2.530960
C  -3.019844  3.133497  0.498352
C  -4.257498  2.513117  0.305845
C  -4.720765  1.536642  1.293443
C  -2.464467  3.895274  -0.545801
C  -2.736727  3.394102  -1.891869
C  -3.429128  1.388860  -3.115015
C  -3.579265  2.268476  -2.024725
C  -3.908475  0.014440  -2.953002
C  -4.501933  -1.718228  -1.334587
C  -4.492027  -0.364577  -1.729253
C  -4.602500  -1.999059  0.095843
C  -4.539589  -0.911823  0.978940
C  -5.065522  0.320195  0.565216
C  -4.527721  1.984417  -1.024325
C  -5.005437  0.615124  -0.864289
