100
# Created by libgraph from Fullerene (http://tinyurl.com/fullerenes)
C  3.266904  -0.791477  3.080690
C  3.959740  0.349354  2.481417
C  4.988014  -0.165508  1.585534
C  4.840175  -1.623956  1.534319
C  3.870480  -2.019659  2.560312
C  4.853522  -2.279980  0.291655
C  3.931640  -3.394033  0.046242
C  3.100833  -3.878736  1.085505
C  3.068759  -3.168394  2.369836
C  5.272725  0.564872  0.412294
C  5.244021  -0.119484  -0.880659
C  4.959574  -1.498082  -0.943970
C  3.143817  1.392999  2.015940
C  3.522662  2.193305  0.944399
C  4.662593  1.884156  0.202501
C  1.869404  -0.729713  3.122154
C  1.219042  0.499184  3.088043
C  1.866757  1.570876  2.529679
C  1.674559  -3.133295  2.821707
C  1.088544  -1.873062  3.044503
C  1.723469  -4.305692  0.788624
C  0.893418  -4.004841  1.948558
C  3.352218  -3.194291  -1.279708
C  1.968575  -3.313893  -1.405456
C  1.191607  -3.917479  -0.442659
C  3.912427  -1.968084  -1.845952
C  4.559140  0.774375  -1.814276
C  3.336539  0.351741  -2.345419
C  3.012103  -1.010639  -2.345744
C  4.579204  2.110558  -1.230709
C  2.673344  3.233289  0.533440
C  2.903463  3.866954  -0.688335
C  3.656499  3.087064  -1.670743
C  1.154137  2.750044  2.345689
C  1.525844  3.557907  1.274368
C  -0.118469  0.636376  3.444180
C  -0.670109  1.884104  3.747332
C  0.024422  3.025577  3.138248
C  -0.305514  -1.701768  3.021751
C  -0.911778  -0.486921  3.292597
C  -0.396839  -3.538023  1.639205
C  -1.069126  -2.702868  2.486187
C  -0.183860  -3.917245  -0.684681
C  -0.996909  -3.700820  0.407982
C  1.284015  -2.677312  -2.428581
C  0.103272  -3.200210  -2.972372
C  -0.686854  -3.939933  -1.993410
C  1.723246  -1.405977  -2.726130
C  2.387031  1.296056  -2.763140
C  1.112695  0.852270  -3.147488
C  0.817379  -0.498366  -3.246725
C  2.673202  2.673682  -2.663524
C  1.746201  4.436589  -1.369663
C  1.516235  3.565351  -2.524327
C  0.688168  4.601293  0.871754
C  0.652309  4.855432  -0.566487
C  -0.985321  3.913727  2.560339
C  -0.690998  4.607945  1.362472
C  -2.102851  2.052114  3.517235
C  -2.272496  3.223131  2.668224
C  -2.300600  -0.375185  3.211933
C  -2.848677  0.909806  3.145888
C  -2.459145  -2.761491  2.597802
C  -3.099316  -1.527839  3.058722
C  -2.363817  -3.439767  0.265240
C  -3.167638  -3.224701  1.405011
C  -2.094065  -3.565307  -2.158680
C  -2.866426  -3.246650  -1.024481
C  -0.799741  -2.281352  -3.664359
C  -2.165944  -2.590484  -3.247188
C  -0.440141  -0.922222  -3.711852
C  0.082756  1.765232  -3.259518
C  -1.147110  1.442148  -3.840027
C  -1.393790  0.026588  -4.115748
C  0.261494  2.961291  -2.592868
C  -0.699214  4.500532  -0.996204
C  -0.826906  3.435092  -1.887380
C  -1.549074  4.410664  0.193372
C  -2.988218  2.943808  1.499540
C  -2.474271  3.353640  0.270835
C  -4.111280  1.076710  2.564759
C  -4.139045  2.139292  1.573930
C  -4.345734  -1.376743  2.305108
C  -4.817366  -0.081599  2.011903
C  -4.374528  -2.414515  1.265374
C  -4.103596  -2.618491  -1.203807
C  -4.824012  -2.103320  -0.032955
C  -3.052678  -1.501656  -3.102050
C  -4.180089  -1.622854  -2.262788
C  -2.772192  -0.266718  -3.727095
C  -2.316991  1.987646  -3.163150
C  -3.316035  0.927928  -3.083112
C  -2.014814  2.709842  -1.997562
C  -2.804150  2.601479  -0.861369
C  -4.640598  1.566386  0.330772
C  -3.834194  1.658364  -0.810914
C  -5.218849  0.260224  0.646038
C  -5.246788  -0.737616  -0.345579
C  -4.742731  -0.414286  -1.678593
C  -3.987292  0.745543  -1.863704
