100
# Created by libgraph from Fullerene (http://tinyurl.com/fullerenes)
C  4.664639  -0.147195  1.813132
C  5.129889  -0.120343  0.433732
C  4.901019  -1.447320  -0.129124
C  4.344689  -2.291400  0.925626
C  4.340646  -1.527735  2.169117
C  3.206162  -3.021708  0.571360
C  2.140175  -3.144685  1.470395
C  2.311017  -2.798690  2.816939
C  3.323488  -1.787548  3.110313
C  4.328092  -1.528118  -1.411686
C  3.647615  -2.701550  -1.802274
C  3.117569  -3.534382  -0.727480
C  4.769918  1.016110  -0.314234
C  4.599981  0.917204  -1.707194
C  4.367441  -0.414410  -2.272507
C  3.772872  0.862407  2.184028
C  3.971286  2.159997  1.709746
C  4.501373  2.231341  0.353898
C  2.608311  -0.643108  3.663794
C  2.640134  0.546141  2.929760
C  1.130848  -2.457186  3.603239
C  1.309893  -1.113553  4.125290
C  0.875482  -3.513918  0.993199
C  -0.259172  -3.237376  1.761610
C  -0.131502  -2.696159  3.044417
C  1.840471  -4.086410  -1.162219
C  0.736975  -4.042192  -0.296025
C  2.612585  -2.599593  -2.825590
C  1.544973  -3.532909  -2.472576
C  3.281853  -0.307581  -3.241027
C  2.275037  -1.294144  -3.188439
C  3.686679  1.853678  -2.360016
C  2.855908  1.087837  -3.284158
C  3.713340  3.225719  -0.360869
C  3.066315  2.796074  -1.521791
C  2.878092  3.121517  1.812991
C  2.921669  3.964471  0.624823
C  1.519085  1.380403  2.844214
C  1.629174  2.631116  2.221017
C  0.169944  -0.324138  3.916636
C  0.271580  0.914059  3.274243
C  -1.267828  -2.238834  3.731754
C  -1.080359  -0.884059  4.221672
C  -1.525004  -3.377363  1.189669
C  -2.593076  -2.666710  1.740958
C  -2.574240  -2.283820  3.084736
C  -0.525765  -4.404622  -0.801453
C  -1.698263  -4.128178  0.021665
C  0.210807  -3.133260  -2.650872
C  -0.808764  -3.947478  -2.153059
C  0.926693  -0.956256  -3.380783
C  -0.093153  -1.879170  -3.178816
C  1.483503  1.319063  -3.209894
C  0.586132  0.360187  -3.625897
C  1.758787  3.223585  -1.772547
C  0.957721  2.437337  -2.594249
C  1.719445  4.594448  0.240395
C  1.234112  4.342553  -1.109346
C  0.469236  3.348383  1.907549
C  0.546241  4.487644  1.100258
C  -0.885859  1.629785  2.945161
C  -0.783197  2.872266  2.308886
C  -2.279228  -0.117690  3.906369
C  -2.143378  1.049228  3.146153
C  -3.292440  -1.070499  3.456580
C  -3.630112  -2.252274  0.903161
C  -4.609899  -1.371668  1.370998
C  -4.325945  -0.633315  2.602887
C  -2.768436  -3.682218  -0.866426
C  -3.619585  -2.649059  -0.436658
C  -2.184871  -3.466787  -2.182716
C  -1.425080  -1.477112  -3.368953
C  -2.449831  -2.223070  -2.776714
C  -0.665497  0.735058  -4.125062
C  -1.713649  -0.278616  -4.047848
C  -0.412138  2.666793  -2.684799
C  -1.214038  1.990817  -3.621028
C  -0.228091  4.472415  -1.084822
C  -0.982739  3.470640  -1.710499
C  -0.614235  4.808503  0.283133
C  -1.942210  3.589053  1.978440
C  -1.875422  4.406228  0.770194
C  -3.253135  1.584796  2.487958
C  -3.212543  2.873728  1.940882
C  -4.379012  0.783964  2.261259
C  -5.200850  -0.441315  0.414685
C  -4.910604  0.901715  0.910824
C  -4.379422  -1.944753  -1.383892
C  -5.064074  -0.725256  -0.959535
C  -3.738065  -1.684601  -2.665559
C  -2.962381  0.408246  -3.709591
C  -3.966800  -0.283329  -3.005201
C  -2.605683  1.750638  -3.255424
C  -2.277139  3.165830  -1.298550
C  -2.972675  2.141067  -1.957165
C  -2.809028  3.797647  -0.172316
C  -3.760516  3.008957  0.599541
C  -4.242314  1.801364  0.066251
C  -4.598783  0.340883  -1.840706
C  -3.962865  1.443766  -1.257953
