100
# Created by libgraph from Fullerene (http://tinyurl.com/fullerenes)
C  4.231382  -2.393552  0.974588
C  4.436425  -2.635908  -0.444715
C  4.717793  -1.320118  -1.008219
C  5.292114  -0.501285  0.054365
C  4.910286  -1.134795  1.317784
C  5.229466  0.899413  -0.091642
C  4.841024  1.732546  1.047288
C  4.391006  1.127087  2.239015
C  4.421997  -0.335414  2.371959
C  3.709824  -0.746960  -1.787768
C  3.632536  0.650377  -1.906200
C  4.571950  1.463647  -1.268229
C  3.520426  -3.501195  -1.087264
C  2.797301  -2.966283  -2.233220
C  2.718961  -1.564513  -2.344089
C  2.936084  -2.597045  1.458040
C  2.106805  -3.566665  0.872029
C  2.512331  -4.207262  -0.298461
C  3.187215  -0.749224  3.035784
C  2.413240  -1.757679  2.435871
C  3.154911  1.603638  2.863587
C  2.455512  0.453471  3.424823
C  4.107302  2.886607  0.512102
C  2.842487  3.181794  1.027397
C  2.373520  2.523207  2.153452
C  4.186519  2.831673  -0.942344
C  2.550139  1.238698  -2.568336
C  2.437955  2.635162  -2.688803
C  3.167477  3.439628  -1.710975
C  1.589031  -0.957423  -2.897094
C  1.508668  0.419738  -2.997466
C  1.534298  -3.709418  -2.341265
C  0.382201  -2.962384  -2.600243
C  0.470549  -1.718680  -3.199996
C  1.459476  -4.636568  -1.211588
C  0.817474  -3.808777  1.374369
C  -0.014968  -4.758325  0.782149
C  0.199231  -4.964096  -0.648332
C  1.050489  -1.863484  2.706947
C  0.320403  -2.993706  2.384280
C  1.065821  0.437012  3.219175
C  0.377129  -0.755060  3.149449
C  1.030982  2.696559  2.466254
C  0.350119  1.583409  2.916092
C  1.971732  4.050500  0.352520
C  0.840236  4.602746  0.994921
C  0.382309  3.902258  2.187748
C  2.168878  4.256755  -1.018076
C  1.091698  3.202336  -2.819780
C  0.939859  4.237335  -1.803185
C  0.302366  0.983584  -3.377971
C  0.057332  2.268182  -2.937386
C  -0.606228  -1.211101  -3.949000
C  -0.679482  0.242555  -4.047987
C  -0.870080  -3.355696  -2.154939
C  -1.956860  -2.534294  -2.468856
C  -1.933811  -1.699452  -3.592840
C  -1.004610  -4.456573  -1.304070
C  -1.456376  -4.637236  1.008033
C  -2.046510  -4.306852  -0.287122
C  -0.940472  -3.205339  2.967623
C  -1.903846  -3.953745  2.162913
C  -0.998031  -0.811041  3.353094
C  -1.640313  -2.041124  3.527474
C  -1.041861  1.551141  2.896252
C  -1.723087  0.372713  3.221563
C  -1.084646  3.873348  2.172612
C  -1.737224  2.649404  2.400549
C  -0.336979  4.848516  0.173445
C  -1.526519  4.620980  0.996848
C  -0.276411  4.249264  -1.087564
C  -1.219512  2.527372  -2.466677
C  -1.401768  3.565810  -1.562032
C  -2.058102  0.644768  -3.760625
C  -2.261051  1.655977  -2.801260
C  -2.863471  -0.570817  -3.638597
C  -2.997821  -2.465503  -1.553273
C  -4.103557  -1.640481  -1.767395
C  -3.974111  -0.578956  -2.766141
C  -2.848813  -3.153426  -0.351425
C  -3.090681  -3.104810  2.051403
C  -3.430856  -2.605468  0.791133
C  -3.041345  -2.125655  3.132298
C  -3.118340  0.362952  3.278671
C  -3.771869  -0.919169  3.009849
C  -3.068190  2.464131  2.020823
C  -3.826029  1.393997  2.523997
C  -2.725503  4.235877  0.351586
C  -3.605582  3.283549  1.028609
C  -2.676285  3.830770  -1.050828
C  -3.462630  1.740391  -2.091504
C  -3.736517  2.844638  -1.270514
C  -4.360518  0.669285  -2.110920
C  -4.758186  -1.083871  -0.587849
C  -4.954647  0.343848  -0.818461
C  -4.276474  -1.489744  0.669129
C  -4.569341  -0.719640  1.801130
C  -4.713068  0.719798  1.584176
C  -4.365201  2.563323  0.014235
C  -4.706490  1.214043  0.263092
