100
# Created by libgraph from Fullerene (http://tinyurl.com/fullerenes)
C  3.169569  -1.887628  2.772474
C  3.485407  -2.861892  1.736475
C  4.444779  -2.243338  0.837946
C  4.945290  -1.023544  1.472528
C  4.179107  -0.823866  2.705531
C  5.276787  0.076444  0.655631
C  4.933478  1.432932  1.083990
C  4.225891  1.635284  2.284413
C  3.844667  0.482923  3.111775
C  4.021994  -2.199630  -0.497575
C  4.167047  -1.007888  -1.222409
C  5.030021  -0.001003  -0.783276
C  2.402305  -3.517288  1.127283
C  2.568769  -4.126741  -0.116549
C  3.350792  -3.318223  -1.042216
C  1.826675  -1.511404  2.909691
C  0.802622  -2.370304  2.484248
C  1.125390  -3.458158  1.680131
C  2.494115  0.725651  3.613358
C  1.495333  -0.233102  3.348047
C  3.112600  2.585423  2.308342
C  2.133727  2.095636  3.268515
C  4.536089  2.185247  -0.109164
C  3.311435  2.863287  -0.108079
C  2.616259  3.054576  1.082668
C  4.823502  1.358550  -1.275900
C  3.350615  -0.790679  -2.330128
C  3.419760  0.394982  -3.079516
C  4.070969  1.545915  -2.455633
C  2.516424  -3.073095  -2.210219
C  2.364636  -1.734156  -2.598247
C  1.380069  -4.618476  -0.816094
C  1.283930  -3.853591  -2.059944
C  0.152801  -4.401067  1.329109
C  0.207978  -4.860919  -0.058191
C  -0.543677  -2.071500  2.735726
C  -1.553588  -2.959359  2.365399
C  -1.249135  -4.121168  1.642120
C  0.140595  0.122682  3.375851
C  -0.872793  -0.804448  3.207558
C  0.799546  2.287977  2.901901
C  -0.179393  1.457444  3.367064
C  1.337653  3.610000  1.008170
C  0.401777  3.182877  1.934210
C  2.712454  3.264595  -1.312257
C  1.630666  4.172105  -1.328214
C  0.984980  4.447716  -0.050069
C  3.118507  2.657936  -2.507948
C  2.187306  0.866187  -3.713518
C  2.011611  2.274669  -3.374798
C  1.174203  -1.270852  -3.139956
C  1.071692  0.044392  -3.548529
C  0.072740  -3.192067  -2.305425
C  0.040239  -2.067549  -3.115345
C  -1.083426  -4.520358  -0.654245
C  -1.102985  -3.550261  -1.658917
C  -2.031370  -4.303599  0.430545
C  -2.899955  -2.620981  2.578450
C  -3.724614  -2.867896  1.406255
C  -3.033541  -3.328015  0.274873
C  -2.207588  -0.397709  3.346971
C  -3.247476  -1.293789  3.078977
C  -1.457704  1.947670  3.620378
C  -2.521007  0.948427  3.624650
C  -0.956858  3.491052  1.807775
C  -1.880604  3.075993  2.789087
C  -0.449217  4.624802  -0.288280
C  -1.382485  4.077354  0.617524
C  0.575784  3.911981  -2.300221
C  -0.703712  4.228517  -1.665778
C  0.722177  2.689645  -2.966268
C  -0.207951  0.560636  -3.609420
C  -0.384231  1.837092  -3.101534
C  -1.147253  -1.680535  -3.759590
C  -1.274665  -0.248485  -4.022597
C  -2.272458  -2.833012  -1.953028
C  -2.398075  -2.137741  -3.166673
C  -3.256899  -2.727499  -0.968899
C  -4.674124  -1.762925  1.257749
C  -5.031796  -1.318812  -0.028555
C  -4.401344  -1.951243  -1.183942
C  -4.344871  -0.767187  2.275959
C  -3.619391  1.479130  2.825185
C  -4.221151  0.587876  1.917716
C  -3.261645  2.831025  2.381908
C  -2.732719  3.996368  0.242322
C  -3.673721  3.279705  1.112098
C  -1.783803  3.346039  -1.837272
C  -2.968787  3.584067  -1.131812
C  -1.635966  2.176568  -2.587629
C  -2.603840  0.170203  -3.588812
C  -2.697430  1.265461  -2.711420
C  -3.357751  -1.039584  -3.247980
C  -4.372455  -0.973361  -2.273493
C  -5.098263  0.113015  -0.307483
C  -4.687770  0.325178  -1.689219
C  -4.610323  1.024926  0.644207
C  -4.438889  2.367306  0.264078
C  -4.005419  2.561740  -1.113902
C  -3.808643  1.398719  -1.870693
