100
# Created by libgraph from Fullerene (http://tinyurl.com/fullerenes)
C  2.993618  -3.613177  -0.685530
C  3.558268  -2.677043  -1.661852
C  4.507080  -1.821644  -0.963748
C  4.425967  -2.150432  0.456358
C  3.651388  -3.382857  0.601695
C  4.150106  -1.074364  1.304655
C  3.269270  -1.248371  2.382549
C  2.913854  -2.530450  2.813937
C  2.935318  -3.589386  1.805943
C  4.525559  -0.460668  -1.339925
C  4.908088  0.515158  -0.403103
C  4.689177  0.188698  1.002610
C  2.669984  -2.037982  -2.546593
C  3.109099  -0.930536  -3.293624
C  4.090928  -0.078793  -2.624085
C  1.604170  -3.744076  -0.664189
C  0.849722  -3.443540  -1.783338
C  1.321949  -2.421912  -2.583241
C  1.574481  -4.115848  1.726788
C  0.912743  -4.034609  0.495896
C  1.696151  -2.687564  3.611032
C  0.815545  -3.575447  2.851254
C  2.673431  -0.126145  2.959867
C  1.778174  -0.242109  4.031881
C  1.158148  -1.547612  4.253462
C  4.072681  1.343594  1.638973
C  2.906344  1.116257  2.374900
C  4.504252  1.906836  -0.608487
C  4.043111  2.435140  0.672088
C  3.705599  1.319040  -2.837460
C  3.758385  2.223227  -1.758770
C  2.110287  -0.058053  -3.911106
C  2.473401  1.329453  -3.615937
C  0.393764  -1.667339  -3.275014
C  0.777607  -0.415119  -3.698694
C  -0.405104  -4.042274  -1.986375
C  -1.338983  -3.319916  -2.849168
C  -0.940967  -2.083082  -3.383255
C  -0.482679  -4.094034  0.407706
C  -1.125424  -4.447918  -0.784337
C  -0.472254  -3.105976  2.560750
C  -1.199993  -3.628865  1.495032
C  -0.289609  -1.338353  4.208559
C  -1.017212  -2.022273  3.229144
C  0.738545  0.778066  4.157228
C  -0.545850  0.098854  4.278592
C  1.904283  2.079630  2.449638
C  0.790268  1.843654  3.244632
C  2.906257  3.253159  0.616107
C  1.949948  3.209125  1.629707
C  2.996155  3.414341  -1.800000
C  2.677295  4.031840  -0.519619
C  1.450055  2.188048  -3.164002
C  1.773092  3.424060  -2.592939
C  -0.215482  0.531287  -3.701055
C  0.122796  1.754199  -3.164399
C  -1.913382  -1.206169  -3.906276
C  -1.520841  0.193130  -4.069622
C  -2.644927  -3.317088  -2.191726
C  -3.366902  -2.107506  -2.190447
C  -3.229256  -1.229346  -3.278704
C  -2.533634  -4.085856  -0.950063
C  -2.597817  -3.550212  1.480606
C  -3.269639  -3.683096  0.184748
C  -2.262152  -1.560057  2.793260
C  -3.189234  -2.421903  2.192112
C  -1.556205  0.628640  3.452307
C  -2.487760  -0.192179  2.833703
C  -0.340613  2.608725  2.989757
C  -1.565553  1.975649  3.107123
C  0.985914  4.226425  1.737003
C  -0.223683  3.911951  2.501996
C  1.379528  4.700408  -0.639566
C  0.569316  4.885440  0.504899
C  0.745977  4.143522  -1.828745
C  -0.858244  2.442535  -2.474416
C  -0.492688  3.508413  -1.661303
C  -2.562608  1.021464  -3.471532
C  -2.167966  1.955810  -2.497654
C  -3.695013  0.152289  -3.156994
C  -4.154615  -1.743242  -1.087075
C  -4.856112  -0.522682  -1.075220
C  -4.539987  0.485487  -2.083473
C  -4.191861  -2.555322  0.058871
C  -4.207742  -1.836160  1.327731
C  -3.553503  0.376313  2.132799
C  -4.278284  -0.434134  1.253344
C  -2.747358  2.628045  2.751590
C  -3.805356  1.758545  2.222859
C  -1.374355  4.426825  1.760160
C  -2.634680  3.788558  1.871246
C  -0.877999  4.684876  0.415341
C  -1.333203  3.839749  -0.598161
C  -3.035388  2.332132  -1.470838
C  -2.590515  3.229110  -0.489871
C  -4.297834  1.737411  -1.369730
C  -4.990717  0.159546  0.207968
C  -4.844139  1.593791  -0.024120
C  -4.328144  2.395341  1.016602
C  -3.363612  3.428925  0.658375
