100
# Created by libgraph from Fullerene (http://tinyurl.com/fullerenes)
C  4.097794  -1.775727  1.455043
C  3.248714  -2.891841  1.861437
C  3.092944  -3.774645  0.719644
C  3.951039  -3.278187  -0.357848
C  4.676578  -2.112869  0.155058
C  3.455550  -3.274294  -1.675810
C  3.750322  -2.137430  -2.557605
C  4.558951  -1.073665  -2.105183
C  5.040604  -1.073473  -0.723018
C  1.747656  -4.075673  0.463562
C  1.225153  -3.890202  -0.815090
C  2.070897  -3.690137  -1.925700
C  2.059788  -2.601521  2.552468
C  1.106732  -3.619621  2.745547
C  0.912062  -4.417133  1.545517
C  3.606181  -0.473920  1.615936
C  2.554920  -0.225711  2.493616
C  1.759901  -1.284373  2.910740
C  4.941537  0.303870  -0.242037
C  4.082981  0.571537  0.827957
C  4.187336  0.310960  -2.420417
C  4.782044  1.165179  -1.404526
C  2.520948  -1.806391  -3.271393
C  2.024842  -0.495228  -3.162447
C  2.852494  0.552392  -2.746550
C  1.557135  -2.874149  -3.023275
C  -0.164407  -3.766020  -0.954275
C  -0.667285  -3.212204  -2.113491
C  0.221571  -2.496472  -2.877201
C  -0.529328  -4.524218  1.308414
C  -1.034236  -4.046938  0.094357
C  -0.220668  -3.274254  3.256891
C  -1.210371  -4.049167  2.510752
C  0.567542  -0.993934  3.553768
C  -0.466615  -1.910672  3.412046
C  2.217978  1.085271  2.853032
C  1.296410  1.329255  3.881364
C  0.371403  0.243259  4.189713
C  3.613741  1.873496  1.043129
C  2.729001  2.142699  2.095151
C  4.241677  2.459926  -1.234105
C  3.951386  2.876708  0.129467
C  2.298567  1.825925  -2.535203
C  3.071609  2.867689  -2.007406
C  0.661163  -0.238128  -3.338661
C  0.168557  1.046739  -3.365729
C  0.927846  2.009199  -2.728078
C  -0.237890  -1.274444  -3.304566
C  -2.031339  -3.234401  -2.416802
C  -2.516329  -2.081287  -3.182930
C  -1.602415  -1.063770  -3.511214
C  -2.395603  -3.731308  -0.048675
C  -2.955198  -3.468357  -1.314139
C  -2.522241  -3.524763  2.401270
C  -3.181847  -3.572915  1.096183
C  -1.741085  -1.393619  3.267624
C  -2.828373  -2.208016  2.964125
C  -0.980651  0.770180  4.045481
C  -1.864417  -0.011013  3.285963
C  0.526962  2.568808  3.834740
C  -0.879389  2.185180  3.698117
C  2.286021  3.452543  2.316700
C  1.037874  3.632329  3.063483
C  3.048585  4.021422  0.052271
C  2.263877  4.364125  1.176774
C  2.378136  3.910483  -1.240253
C  0.273217  3.074621  -2.135799
C  0.976957  3.861241  -1.229450
C  -1.109441  1.309167  -3.875879
C  -1.786489  2.468212  -3.300603
C  -1.102350  3.240513  -2.343409
C  -2.066643  0.199396  -3.916722
C  -3.756491  -1.623086  -2.567860
C  -3.965945  -0.233693  -2.449962
C  -3.318995  0.658292  -3.329226
C  -4.013460  -2.462641  -1.396157
C  -4.160131  -2.488996  1.040127
C  -4.397145  -1.845470  -0.193699
C  -3.896505  -1.609789  2.169716
C  -2.798285  0.560209  2.429436
C  -3.814682  -0.235905  1.883287
C  -1.565112  2.637350  2.558918
C  -2.619169  1.882920  2.022517
C  0.119787  4.350084  2.184909
C  -1.132106  3.787158  1.889516
C  0.866370  4.761786  1.004888
C  0.249998  4.476574  -0.216783
C  -1.830258  4.094945  -1.508045
C  -1.130189  4.680673  -0.364600
C  -3.141189  2.056636  -2.931948
C  -3.630861  2.451257  -1.673326
C  -3.122806  3.609013  -1.044501
C  -4.769941  0.262894  -1.413198
C  -4.569312  1.649280  -0.996233
C  -4.946119  -0.548003  -0.209173
C  -4.694494  0.306874  0.943854
C  -3.415670  2.403705  0.997323
C  -4.471677  1.662021  0.456500
C  -1.881843  4.325639  0.829540
C  -3.094344  3.630038  0.412328
