100
# Created by libgraph from Fullerene (http://tinyurl.com/fullerenes)
C  4.097477  -0.944443  2.349870
C  4.205828  0.508038  2.238274
C  5.149691  0.800342  1.166660
C  5.445402  -0.463997  0.482501
C  4.908208  -1.556638  1.298458
C  5.357411  -0.529452  -0.918543
C  4.745660  -1.699432  -1.551485
C  4.408624  -2.833188  -0.780348
C  4.465027  -2.749403  0.679841
C  4.957145  1.983110  0.425263
C  4.878560  1.903542  -1.034097
C  4.947042  0.652329  -1.677433
C  2.995391  1.228772  2.273608
C  2.879803  2.458571  1.616694
C  3.934782  2.948610  0.844264
C  2.812613  -1.449603  2.530889
C  1.836022  -0.688782  3.136369
C  1.853012  0.660378  2.851581
C  3.262521  -3.410741  1.200355
C  2.406149  -2.651999  1.994704
C  3.215161  -3.616090  -1.120166
C  2.604844  -4.108631  0.101817
C  3.768949  -1.210410  -2.520217
C  2.488944  -1.772013  -2.482480
C  2.306050  -3.070399  -2.028324
C  3.855608  0.244924  -2.559806
C  3.827160  2.830943  -1.445497
C  2.677558  2.301078  -2.036467
C  2.666850  0.981095  -2.483703
C  3.577243  3.729895  -0.328291
C  1.651904  3.138451  1.624331
C  1.478124  4.311842  0.869018
C  2.362237  4.451243  -0.284290
C  0.672336  1.377197  2.978181
C  0.555009  2.564348  2.274897
C  0.802999  -1.306205  3.850497
C  -0.366243  -0.483957  4.154809
C  -0.424583  0.832750  3.661627
C  1.061205  -2.988485  2.160992
C  0.345623  -2.580236  3.301602
C  1.193381  -4.095585  0.026516
C  0.424186  -3.577717  1.076517
C  1.135763  -3.771409  -2.352527
C  0.584075  -4.446955  -1.188551
C  1.352922  -1.017651  -2.775776
C  0.119888  -1.651070  -2.959496
C  0.031204  -3.051629  -2.979580
C  1.434924  0.371964  -2.740831
C  1.502948  3.056580  -2.064240
C  0.331679  2.519329  -2.597448
C  0.270903  1.142874  -2.830655
C  1.481608  4.301056  -1.431478
C  0.118318  4.638771  0.413030
C  0.163713  4.793703  -1.038508
C  -0.710964  3.082784  2.077019
C  -0.901619  3.834742  0.930064
C  -1.640823  1.538439  3.740486
C  -1.778235  2.736207  2.915133
C  -1.550805  -1.280043  3.857856
C  -2.635589  -0.598621  3.270720
C  -2.856359  0.749473  3.586368
C  -1.111382  -2.519672  3.218790
C  -0.968100  -3.495220  0.980646
C  -1.688528  -2.836340  1.981428
C  -0.872730  -4.389039  -1.275109
C  -1.618936  -3.930452  -0.178320
C  -1.202487  -3.651232  -2.483865
C  -1.045465  -0.875700  -2.985098
C  -2.284855  -1.496801  -2.840795
C  -2.315912  -2.805976  -2.367921
C  -0.967098  0.518445  -3.016436
C  -0.787280  3.341752  -2.766009
C  -2.075684  2.684194  -2.978233
C  -2.133991  1.285811  -3.089880
C  -0.979703  4.396258  -1.775021
C  -2.083824  3.619240  0.237721
C  -2.220110  4.048328  -1.079611
C  -3.071436  2.662669  2.238350
C  -3.067037  2.832788  0.843276
C  -3.805174  1.522229  2.784026
C  -3.433331  -1.219356  2.300167
C  -4.633179  -0.631472  1.888806
C  -4.711548  0.822300  1.961482
C  -2.970178  -2.379304  1.677604
C  -3.009162  -3.763428  -0.337992
C  -3.726215  -3.023516  0.692684
C  -3.418946  -3.228006  -1.622684
C  -3.469010  -0.782333  -3.046036
C  -4.599947  -1.132423  -2.182352
C  -4.534923  -2.307944  -1.407170
C  -3.399640  0.672290  -3.117745
C  -2.987886  3.183103  -1.961588
C  -3.808943  2.205445  -1.364649
C  -4.365930  1.215886  -2.180105
C  -3.961724  2.135268  0.026474
C  -4.923608  1.293637  0.597119
C  -5.222997  -1.048347  0.618983
C  -5.387366  0.154189  -0.199394
C  -4.782025  -2.250881  0.035000
C  -5.098174  0.105013  -1.577114
