100
# Created by libgraph from Fullerene (http://tinyurl.com/fullerenes)
C  4.327521  -1.899240  0.416335
C  3.643912  -3.053721  -0.154207
C  3.601582  -2.870867  -1.593122
C  4.378969  -1.677757  -1.933336
C  4.884165  -1.104543  -0.682961
C  3.909784  -0.834366  -2.959474
C  4.051485  0.619887  -2.828639
C  4.567204  1.179020  -1.637773
C  4.994191  0.297032  -0.546611
C  2.308906  -3.022188  -2.105098
C  1.770224  -2.034772  -2.927995
C  2.604906  -1.106206  -3.570268
C  2.428688  -3.465066  0.437873
C  1.622323  -4.392346  -0.236100
C  1.528133  -4.102056  -1.658411
C  3.659586  -1.212102  1.427357
C  2.711120  -1.851907  2.210830
C  1.961193  -2.852565  1.607002
C  4.573998  0.914351  0.713138
C  3.815738  0.148975  1.607072
C  3.905473  2.341520  -1.031498
C  3.997752  2.218480  0.418040
C  2.876320  1.234923  -3.446290
C  2.168310  2.204162  -2.723315
C  2.660345  2.716034  -1.539462
C  2.030526  0.172690  -3.972083
C  0.377002  -1.914436  -3.000073
C  -0.180527  -0.724839  -3.455791
C  0.655569  0.334321  -3.762532
C  0.114951  -4.111793  -2.016168
C  -0.447692  -2.924899  -2.501690
C  0.266369  -4.655766  0.245129
C  -0.598149  -4.768175  -0.925680
C  0.681141  -3.120513  2.092896
C  -0.198953  -3.886603  1.319845
C  2.444423  -1.392304  3.509049
C  1.141754  -1.740986  4.059979
C  0.254290  -2.507911  3.281088
C  3.072967  0.747679  2.629148
C  2.678878  0.028711  3.760652
C  2.840055  2.565643  1.143130
C  2.604108  2.028124  2.398180
C  1.782324  3.494573  -0.789602
C  1.822664  3.330614  0.586202
C  0.869867  2.575161  -3.086316
C  0.317250  3.800701  -2.707344
C  0.808362  4.285614  -1.419954
C  0.097075  1.598796  -3.680721
C  -1.568200  -0.537163  -3.471939
C  -2.126101  0.657971  -3.965033
C  -1.230556  1.813205  -4.047821
C  -1.825060  -2.696091  -2.391356
C  -2.382117  -1.503900  -2.875603
C  -1.974641  -4.517810  -0.754956
C  -2.624050  -3.615980  -1.701637
C  -1.571691  -3.782199  1.556806
C  -2.490023  -4.159816  0.565424
C  -1.098693  -2.545332  3.647114
C  -2.042123  -3.192756  2.739437
C  0.561711  -0.521365  4.614035
C  -0.753662  -0.232620  4.224165
C  -1.678865  -1.283039  4.084571
C  1.562868  0.547702  4.550388
C  1.803441  2.706067  3.320336
C  1.149328  1.887335  4.342814
C  0.771372  3.787507  1.383577
C  0.813232  3.642886  2.781144
C  -0.344154  4.657933  -0.604902
C  -0.376639  4.265453  0.747560
C  -1.140633  3.928863  -2.723474
C  -1.543130  4.323712  -1.368542
C  -1.899516  2.959122  -3.427750
C  -3.377560  1.116178  -3.376276
C  -3.089717  2.422816  -2.779177
C  -3.737392  -1.237440  -2.658638
C  -4.141888  0.166842  -2.663365
C  -3.824604  -3.088195  -1.057174
C  -4.366492  -1.865225  -1.506095
C  -3.633152  -3.274810  0.378503
C  -3.155767  -2.277190  2.535070
C  -3.618535  -2.150318  1.211728
C  -2.876722  -1.056277  3.285664
C  -1.105657  1.076425  3.872244
C  -2.238711  1.278358  3.086329
C  -2.913395  0.158749  2.599561
C  -0.279627  2.149725  4.218062
C  -0.446945  3.400385  3.473037
C  -1.601052  4.240705  1.426182
C  -1.644908  3.641096  2.763759
C  -2.509725  3.551834  -0.705639
C  -2.744788  3.753928  0.667313
C  -3.156578  2.514645  -1.387177
C  -4.491336  0.480808  -1.283484
C  -3.780013  1.509368  -0.652323
C  -4.603519  -0.785871  -0.551674
C  -3.952657  -0.897653  0.685988
C  -3.523248  0.248459  1.354302
C  -2.633449  2.568425  2.708138
C  -3.344773  2.669970  1.435288
C  -3.585971  1.485491  0.725066
