100
# Created by libgraph from Fullerene (http://tinyurl.com/fullerenes)
C  3.990611  0.148346  2.357216
C  4.294900  1.420138  1.719412
C  4.853569  1.128369  0.412635
C  5.142373  -0.303466  0.351525
C  4.715190  -0.889530  1.624118
C  4.909753  -0.989431  -0.855773
C  4.411209  -2.368242  -0.818477
C  4.140197  -2.989547  0.418395
C  4.239562  -2.211871  1.655661
C  4.133913  1.737926  -0.621908
C  3.684952  0.972569  -1.698727
C  4.237702  -0.294601  -1.958303
C  3.293886  2.403129  1.740898
C  3.375546  3.488778  0.866409
C  3.759657  3.086345  -0.477850
C  2.655351  -0.108220  2.697074
C  1.766357  0.954787  2.889775
C  2.154159  2.243554  2.524048
C  3.038172  -2.487631  2.439510
C  2.179580  -1.419279  2.738458
C  2.972420  -3.865829  0.558011
C  2.415920  -3.679634  1.885643
C  3.440176  -2.521250  -1.899149
C  2.192908  -3.098662  -1.595510
C  2.030153  -3.912348  -0.475375
C  3.408528  -1.271086  -2.656047
C  2.587237  1.437160  -2.436922
C  1.836249  0.524748  -3.169862
C  2.152710  -0.819163  -3.068052
C  2.773482  3.625694  -1.405859
C  2.167536  2.765113  -2.331060
C  2.240797  4.405967  0.771321
C  1.817349  4.408625  -0.630949
C  1.352487  3.346000  2.832251
C  1.268895  4.375105  1.796188
C  0.458167  0.718481  3.326460
C  -0.402598  1.791366  3.579629
C  -0.001840  3.110660  3.321016
C  0.815649  -1.643579  2.974003
C  -0.019640  -0.595243  3.370066
C  1.018270  -3.776205  1.914438
C  0.270583  -2.893561  2.682451
C  0.855657  -4.675890  -0.310305
C  0.366199  -4.671995  1.059751
C  1.055733  -2.763709  -2.333851
C  -0.168229  -3.356231  -2.073853
C  -0.296293  -4.415804  -1.170174
C  1.108076  -1.704527  -3.225205
C  0.692360  0.923333  -3.876670
C  -0.154325  -0.033139  -4.474918
C  0.082687  -1.434513  -4.141815
C  1.046375  3.221828  -3.041753
C  0.313932  2.272075  -3.877695
C  0.462676  4.188477  -0.929153
C  0.080630  3.985248  -2.265137
C  -0.134906  4.449898  1.407134
C  -0.471090  4.060461  0.104310
C  -0.920308  3.872008  2.492159
C  -1.732562  1.555803  3.956997
C  -2.671209  2.351234  3.181360
C  -2.081832  3.147870  2.190431
C  -1.362852  -0.852032  3.675795
C  -2.242195  0.192794  3.988528
C  -1.038008  -3.223495  3.038049
C  -1.885886  -2.146633  3.541359
C  -1.100863  -4.660508  1.042143
C  -1.811459  -3.998554  2.072502
C  -1.500555  -4.407604  -0.340868
C  -1.292575  -2.743209  -2.620756
C  -2.445086  -2.743927  -1.853496
C  -2.381915  -3.345172  -0.594705
C  -1.207798  -2.043402  -3.830350
C  -1.587448  0.213850  -4.368824
C  -2.258355  -1.061920  -4.111078
C  -1.109581  2.480878  -3.643243
C  -1.921904  1.329110  -3.589202
C  -1.240724  3.439505  -2.552151
C  -1.700684  3.442212  -0.159875
C  -2.018347  3.051489  -1.459001
C  -2.567957  3.106415  0.885989
C  -3.821059  1.516183  2.827122
C  -4.442768  1.673962  1.570646
C  -3.862568  2.627923  0.629937
C  -3.520149  0.162159  3.289439
C  -3.125743  -2.170944  2.780844
C  -3.639315  -0.914169  2.399396
C  -2.985524  -3.187301  1.747601
C  -3.122860  -2.762424  0.426858
C  -3.585334  -2.054354  -2.275061
C  -4.374846  -1.462589  -1.197421
C  -3.917392  -1.656448  0.116998
C  -3.438630  -1.054910  -3.331029
C  -2.995668  1.248128  -2.690089
C  -3.922871  0.206323  -2.775872
C  -3.072309  2.162440  -1.639937
C  -4.127197  2.135149  -0.720696
C  -4.810192  0.491169  0.794415
C  -4.881591  0.890427  -0.607678
C  -4.156362  -0.703860  1.111907
C  -4.729075  -0.103569  -1.596596
