100
# Created by libgraph from Fullerene (http://tinyurl.com/fullerenes)
C  4.771902  -1.165782  1.027003
C  5.222611  -0.146075  0.091923
C  4.799565  -0.598807  -1.232293
C  4.417744  -2.004819  -1.126644
C  4.564597  -2.401455  0.271911
C  3.253225  -2.372840  -1.818367
C  2.395549  -3.339985  -1.269226
C  2.769302  -4.061439  -0.133357
C  3.696555  -3.394470  0.772669
C  3.959280  0.238146  -1.982248
C  3.281950  -0.282275  -3.097023
C  2.913869  -1.692856  -3.004469
C  5.049707  1.204372  0.460635
C  4.491810  2.111424  -0.531877
C  3.727959  1.554339  -1.562054
C  3.783665  -0.800434  1.943151
C  3.682011  0.524765  2.384580
C  4.394480  1.537155  1.725459
C  2.924680  -3.078387  1.968853
C  2.825100  -1.730320  2.339675
C  1.707749  -4.638339  0.682581
C  1.670368  -3.835523  1.901750
C  1.111249  -3.509108  -1.791957
C  0.256749  -4.518684  -1.322599
C  0.494798  -4.975883  0.043906
C  1.547716  -1.836035  -3.495874
C  0.647680  -2.573969  -2.707898
C  2.134283  0.450314  -3.627405
C  1.088360  -0.520592  -3.932770
C  2.664668  2.276033  -2.108370
C  1.760396  1.613540  -2.937170
C  3.928134  3.257099  0.181983
C  2.924111  4.034909  -0.428986
C  2.453190  3.611911  -1.742372
C  3.717567  2.819773  1.558948
C  2.790309  0.861995  3.419398
C  2.143166  2.163527  3.278315
C  2.428350  2.887609  2.105892
C  1.703223  -1.266275  3.019842
C  1.766769  -0.106375  3.804263
C  0.470763  -3.150829  2.151426
C  0.493294  -1.912239  2.788699
C  -0.742854  -4.709056  0.764580
C  -0.744404  -3.638853  1.662284
C  -1.193015  -4.333503  -1.475712
C  -1.821922  -4.709640  -0.215543
C  -0.721921  -2.308842  -2.730905
C  -1.621511  -3.137984  -2.065769
C  -0.211223  -0.157048  -3.560652
C  -1.161107  -1.124020  -3.298569
C  0.438040  2.059803  -2.961945
C  -0.561384  1.159749  -3.304628
C  1.102603  4.144410  -1.920448
C  0.115402  3.339367  -2.510837
C  1.730867  4.399642  0.330203
C  0.674782  4.679686  -0.638518
C  1.419263  3.589655  1.427700
C  0.746369  2.022108  3.676254
C  -0.243529  2.548430  2.831752
C  0.081369  3.389876  1.778569
C  0.527864  0.627879  4.042862
C  -0.695785  -1.251157  3.072213
C  -0.645848  0.049768  3.543569
C  -1.946277  -2.985303  1.971585
C  -1.928913  -1.824908  2.748429
C  -3.054594  -4.099491  0.110552
C  -3.142409  -3.431695  1.401820
C  -2.932019  -2.683427  -1.886114
C  -3.705100  -3.196937  -0.839604
C  -2.516246  -0.840304  -3.475161
C  -3.440191  -1.632628  -2.670926
C  -1.909819  1.528012  -3.244337
C  -2.922087  0.560464  -3.381507
C  -1.219838  3.780573  -2.497363
C  -2.260385  2.842236  -2.908490
C  -0.651808  4.379605  -0.281202
C  -1.647453  4.416038  -1.261492
C  -0.956379  3.914283  0.996646
C  -1.568373  2.127324  2.938939
C  -2.627128  2.922945  2.512667
C  -2.292686  3.859080  1.441105
C  -1.775375  0.821259  3.335670
C  -3.133263  -1.181527  3.088966
C  -3.045389  0.248307  3.386793
C  -4.248882  -2.474967  1.333384
C  -4.276978  -1.371512  2.207924
C  -4.489962  -2.226027  -0.083434
C  -4.299875  -0.699989  -1.949978
C  -4.438821  -0.907783  -0.568756
C  -4.011721  0.649357  -2.422607
C  -3.337757  2.918481  -1.928331
C  -3.872526  1.691515  -1.494366
C  -2.990910  3.937446  -0.937975
C  -3.327275  3.730657  0.413988
C  -3.877760  2.251940  2.162919
C  -4.127683  2.556225  0.757526
C  -4.094016  0.936051  2.633388
C  -4.620544  -0.046788  1.692927
C  -4.437464  0.178601  0.322077
C  -4.172601  1.479501  -0.142022
