100
# Created by libgraph from Fullerene (http://tinyurl.com/fullerenes)
C  4.584975  -1.845347  0.852009
C  5.021902  -0.964972  -0.221141
C  4.563178  -1.549087  -1.477201
C  3.900907  -2.815333  -1.166693
C  4.070588  -3.080328  0.260087
C  2.642033  -3.007812  -1.747425
C  1.627832  -3.644803  -1.015155
C  1.919394  -4.312780  0.178787
C  3.067410  -3.814866  0.929113
C  3.960099  -0.689189  -2.413014
C  3.053087  -1.209818  -3.359779
C  2.392277  -2.469305  -3.021249
C  4.842862  0.414223  -0.002747
C  4.678061  1.280415  -1.097352
C  4.209942  0.696897  -2.354740
C  3.847981  -1.247679  1.876255
C  4.210729  0.019467  2.340035
C  4.752035  0.906270  1.316870
C  2.525462  -3.246064  2.157840
C  2.693541  -1.870404  2.341457
C  0.835652  -4.511416  1.137570
C  1.188065  -3.797265  2.352793
C  0.298119  -3.512786  -1.422015
C  -0.756574  -3.974316  -0.625493
C  -0.483051  -4.306118  0.699691
C  1.004080  -2.389639  -3.463838
C  0.004364  -2.789569  -2.564885
C  2.046523  -0.315529  -3.924760
C  0.795141  -1.069076  -4.048902
C  3.182364  1.577156  -2.900277
C  2.003050  0.971759  -3.363938
C  3.968128  2.541715  -0.890694
C  3.043157  2.725037  -2.004710
C  4.141013  2.216480  1.509901
C  3.501674  2.799812  0.409688
C  3.242727  0.782395  3.120946
C  3.419919  2.191295  2.783849
C  1.679329  -1.077056  2.883341
C  1.937925  0.275080  3.161909
C  0.146423  -2.959969  2.778508
C  0.387363  -1.603498  3.013115
C  -1.515313  -4.283805  1.643444
C  -1.158720  -3.482019  2.801688
C  -2.077128  -3.977514  -1.119490
C  -3.162536  -3.842557  -0.144645
C  -2.869688  -3.917959  1.230340
C  -1.306191  -2.351560  -2.709437
C  -2.385483  -3.102110  -2.249240
C  -0.369386  -0.392596  -3.653949
C  -1.474393  -1.063533  -3.170116
C  0.763564  1.591965  -3.161700
C  -0.399561  0.979460  -3.569861
C  1.749465  3.129872  -1.654377
C  0.657835  2.741714  -2.406695
C  2.341064  3.559231  0.608656
C  1.505762  3.813370  -0.473697
C  2.328088  3.062498  2.987292
C  1.971155  3.957231  1.894365
C  0.863334  1.144460  3.359406
C  1.066251  2.530839  3.491600
C  -0.683334  -0.735089  3.234209
C  -0.433294  0.631535  3.287930
C  -2.262528  -2.575181  3.084243
C  -2.000776  -1.212291  3.255704
C  -3.326115  -2.853253  2.124440
C  -4.051909  -2.778875  -0.614466
C  -4.382051  -1.711972  0.238624
C  -3.996602  -1.739504  1.585672
C  -3.622740  -2.386229  -1.949130
C  -2.679794  -0.387162  -2.995988
C  -3.682487  -1.009835  -2.247203
C  -1.589441  1.700643  -3.722963
C  -2.814251  0.936891  -3.456813
C  -0.570395  3.403728  -2.280582
C  -1.694784  2.977896  -3.019198
C  0.381141  4.637958  -0.349501
C  -0.710810  4.408735  -1.305755
C  0.581538  4.379803  2.091452
C  -0.201113  4.788703  0.980497
C  -0.001484  3.418895  3.023707
C  -1.485088  1.508453  3.105087
C  -1.168349  2.767472  2.627861
C  -3.091500  -0.327256  3.310346
C  -2.813512  1.100590  3.251980
C  -4.193573  -0.613146  2.400970
C  -5.023233  -0.581738  -0.305729
C  -5.074577  0.654217  0.472382
C  -4.634172  0.649835  1.808865
C  -4.696051  -0.230321  -1.682553
C  -3.728432  1.802580  -2.712318
C  -4.615687  1.226951  -1.776144
C  -2.970332  2.991196  -2.316066
C  -1.951138  4.310697  -0.549449
C  -2.860784  3.307485  -0.956319
C  -1.599162  4.359105  0.863807
C  -1.981697  3.259365  1.623858
C  -3.713356  1.688906  2.266688
C  -3.120384  2.521538  1.303683
C  -4.645327  1.741639  -0.409217
C  -3.570224  2.546072  -0.013943
