100
# Created by libgraph from Fullerene (http://tinyurl.com/fullerenes)
C  0.840710  -4.519675  1.412937
C  -0.458518  -4.908934  0.881684
C  -0.296430  -5.099325  -0.545751
C  1.135648  -5.071795  -0.849750
C  1.842733  -4.910285  0.422476
C  1.571409  -4.363817  -1.989088
C  2.873429  -3.688296  -1.960660
C  3.660965  -3.709184  -0.787168
C  3.100703  -4.278403  0.439296
C  -1.164702  -4.249106  -1.237448
C  -0.639041  -3.313044  -2.120460
C  0.625178  -3.494276  -2.700082
C  -1.570090  -4.118988  1.227706
C  -2.772039  -4.296701  0.543817
C  -2.527859  -4.239321  -0.884006
C  0.972277  -3.231364  1.943094
C  -0.167981  -2.506420  2.290988
C  -1.438334  -3.053465  2.111265
C  3.343022  -3.299403  1.491820
C  2.231053  -2.627897  2.006443
C  4.422452  -2.515104  -0.386600
C  4.460407  -2.468804  1.065968
C  2.731306  -2.424400  -2.679115
C  3.254890  -1.266698  -2.093829
C  4.130155  -1.311338  -1.022013
C  1.349397  -2.303626  -3.136136
C  -1.344155  -2.119935  -2.292909
C  -0.654660  -0.979217  -2.683740
C  0.713423  -1.067052  -2.920777
C  -3.347239  -3.157818  -1.413132
C  -2.692893  -2.039241  -1.942475
C  -3.911013  -3.429617  0.849485
C  -4.386562  -2.882348  -0.422368
C  -2.564898  -2.455515  2.697377
C  -3.843547  -2.600874  1.989054
C  -0.050207  -1.178057  2.683561
C  -1.206266  -0.442011  2.920011
C  -2.448977  -1.067227  3.135762
C  2.360162  -1.314387  2.470604
C  1.204108  -0.558499  2.689972
C  4.660470  -1.202807  1.664372
C  3.633698  -0.743821  2.592220
C  4.596078  -0.096303  -0.504137
C  4.982978  -0.038632  0.835448
C  2.805965  -0.013274  -2.482023
C  3.635293  1.104594  -2.410465
C  4.560825  1.075716  -1.284158
C  1.462397  0.098978  -2.779627
C  -1.301192  0.262829  -2.689674
C  -0.543626  1.435363  -2.775405
C  0.851412  1.349737  -2.781334
C  -3.352400  -0.807714  -2.006474
C  -2.680496  0.327831  -2.469566
C  -5.028713  -1.630041  -0.438721
C  -4.646408  -0.696787  -1.490944
C  -4.497857  -1.288275  1.961608
C  -5.145698  -0.840244  0.787987
C  -3.639299  -0.351596  2.682006
C  -1.122695  0.941349  2.776757
C  -2.275563  1.637996  2.474836
C  -3.381512  0.892484  2.100324
C  1.285285  0.836616  2.776271
C  0.108479  1.590879  2.780369
C  3.709401  0.715012  2.649242
C  2.530430  1.464641  2.713555
C  4.595211  1.152216  1.578204
C  4.413174  2.337396  -0.555928
C  4.189243  2.281010  0.831607
C  3.017030  2.423913  -2.449829
C  3.544567  3.212673  -1.346204
C  1.630685  2.504164  -2.639301
C  -1.178205  2.678530  -2.709366
C  -0.433236  3.851611  -2.563141
C  1.020258  3.755960  -2.546625
C  -3.372225  1.539319  -2.590104
C  -2.573067  2.762388  -2.647184
C  -5.058432  0.633361  -1.064613
C  -4.472176  1.773926  -1.662142
C  -5.056618  0.573342  0.387947
C  -4.111922  1.373291  1.025196
C  -2.283744  3.031869  2.408479
C  -3.048364  3.556014  1.283757
C  -3.769550  2.628199  0.508153
C  0.160419  2.982281  2.638706
C  -1.006975  3.733935  2.449108
C  2.622126  2.852663  2.563611
C  1.391867  3.633134  2.546660
C  3.471936  3.308446  1.475179
C  2.597455  4.030783  -0.695711
C  2.691404  4.259516  0.683774
C  1.505900  4.548318  -1.425500
C  -0.851298  4.720530  -1.475175
C  0.339694  5.027488  -0.683014
C  -3.030523  3.637481  -1.575777
C  -2.035722  4.312189  -0.831263
C  -4.046021  2.904178  -0.832575
C  -2.185874  4.488549  0.555703
C  -0.968372  4.683120  1.346364
C  1.466862  4.559693  1.425748
C  0.279222  4.785449  0.696974
