100
# Created by libgraph from Fullerene (http://tinyurl.com/fullerenes)
C  4.513988  -1.270866  1.090888
C  4.918597  -0.179862  0.215600
C  4.817261  -0.654256  -1.158765
C  4.361704  -2.042637  -1.111046
C  4.397506  -2.483189  0.282228
C  3.240460  -2.357335  -1.887283
C  2.312805  -3.300827  -1.410650
C  2.609222  -4.096372  -0.300813
C  3.515747  -3.512936  0.680762
C  4.223597  0.229419  -2.082226
C  3.503703  -0.279159  -3.182562
C  3.017247  -1.657123  -3.087922
C  4.407423  1.099234  0.493947
C  4.494678  2.089739  -0.486422
C  4.285357  1.622225  -1.853788
C  3.488359  -1.003759  1.997012
C  3.278159  0.293363  2.467435
C  3.733075  1.363234  1.694983
C  2.723592  -3.308313  1.888796
C  2.590159  -1.997065  2.362000
C  1.500425  -4.706921  0.430894
C  1.482237  -4.076461  1.748531
C  1.043281  -3.370226  -1.985090
C  0.096116  -4.324119  -1.574559
C  0.279710  -4.914467  -0.249898
C  1.668499  -1.699378  -3.640507
C  0.690024  -2.383609  -2.896496
C  2.431603  0.540590  -3.744798
C  1.314179  -0.347774  -4.067063
C  3.220223  2.430306  -2.432386
C  2.166119  1.737224  -3.058804
C  3.753973  3.337235  -0.303206
C  2.868038  3.468869  -1.461236
C  3.436340  2.678625  2.071492
C  3.273943  3.652583  0.991609
C  2.534623  0.498107  3.640056
C  1.949495  1.821357  3.855535
C  2.373607  2.906693  3.052725
C  1.482990  -1.619960  3.114599
C  1.527845  -0.507603  3.973589
C  0.277061  -3.460371  2.119836
C  0.291559  -2.289442  2.868786
C  -0.971984  -4.709023  0.482782
C  -0.949156  -3.930799  1.644749
C  -1.325139  -3.992062  -1.721691
C  -1.999007  -4.307808  -0.469173
C  -0.650320  -2.010083  -2.944944
C  -1.616718  -2.746861  -2.284852
C  0.038183  0.093238  -3.698697
C  -0.990235  -0.797130  -3.508632
C  0.839163  2.167413  -2.895048
C  -0.215891  1.400255  -3.347376
C  1.510490  3.643194  -1.195310
C  0.556213  3.276674  -2.124973
C  1.926160  4.202348  1.121565
C  1.049292  4.045698  0.042002
C  1.379530  3.761496  2.401121
C  0.514619  1.621312  4.064346
C  -0.370002  2.266227  3.192739
C  0.056584  3.304187  2.382575
C  0.272636  0.190625  4.238435
C  -0.901460  -1.696786  3.245997
C  -0.851189  -0.358292  3.599241
C  -2.164601  -3.529186  2.237371
C  -2.118268  -2.378275  3.134789
C  -2.963244  -3.379402  -0.016392
C  -3.297063  -3.337197  1.341967
C  -2.844291  -2.127633  -2.066546
C  -3.511045  -2.421831  -0.882221
C  -2.315961  -0.404979  -3.722258
C  -3.314289  -1.152794  -2.962059
C  -1.535456  1.875176  -3.280072
C  -2.614269  1.019036  -3.579946
C  -0.697488  3.908420  -2.153628
C  -1.788796  3.165056  -2.783074
C  -0.337962  4.139295  0.201497
C  -1.180875  4.426818  -0.878679
C  -0.851007  3.768098  1.430650
C  -1.674357  1.801119  3.004900
C  -2.691969  2.644343  2.543718
C  -2.230104  3.718474  1.672145
C  -1.887557  0.439229  3.137041
C  -3.280544  -1.532447  2.849214
C  -3.062144  -0.153398  2.671038
C  -4.091203  -2.212992  1.839909
C  -4.644784  -1.689307  -0.518686
C  -4.825253  -1.444699  0.909649
C  -4.306513  -0.200466  -2.465114
C  -4.938435  -0.444146  -1.231047
C  -3.800994  1.145385  -2.742947
C  -2.956361  3.260509  -1.908784
C  -3.703681  2.083817  -1.701223
C  -2.602404  4.098975  -0.760833
C  -3.125175  3.789407  0.512804
C  -3.857166  2.030783  1.916010
C  -4.076119  2.684247  0.631221
C  -3.952713  0.627601  1.926238
C  -4.878714  0.004410  1.085143
C  -4.997140  0.619517  -0.231900
C  -4.278356  1.810443  -0.450537
