100
# Created by libgraph from Fullerene (http://tinyurl.com/fullerenes)
C  3.699719  -2.085825  1.929756
C  4.404756  -0.845564  1.626798
C  4.876383  -0.930000  0.257467
C  4.614427  -2.284879  -0.230970
C  4.017785  -3.043414  0.871485
C  4.129150  -2.450425  -1.541959
C  3.117856  -3.479919  -1.814589
C  2.654254  -4.316717  -0.779238
C  3.109090  -4.083158  0.591981
C  4.473492  0.178189  -0.499585
C  3.795932  -0.010725  -1.702599
C  3.794198  -1.265759  -2.340622
C  3.779947  0.369745  1.961104
C  4.300748  1.568343  1.463244
C  4.629598  1.463910  0.052183
C  2.359788  -1.997871  2.320756
C  1.860573  -0.796827  2.821204
C  2.570609  0.381189  2.653280
C  1.932116  -4.211861  1.447217
C  1.484565  -3.067471  2.109937
C  1.228086  -4.656954  -0.698013
C  0.923618  -4.943916  0.694976
C  2.131100  -2.899913  -2.719601
C  0.773204  -2.938729  -2.345390
C  0.322540  -3.841996  -1.382385
C  2.637399  -1.604382  -3.160885
C  3.004699  1.039476  -2.191078
C  1.963509  0.737347  -3.056467
C  1.690752  -0.591689  -3.305800
C  4.014622  2.595719  -0.637796
C  3.160549  2.343132  -1.714708
C  3.552103  2.807673  1.658810
C  3.463299  3.493456  0.374480
C  1.980670  1.580835  3.055879
C  2.377974  2.759712  2.421845
C  0.586364  -0.744413  3.369270
C  0.183281  0.327011  4.172486
C  0.932301  1.572871  3.992446
C  0.134231  -2.939196  2.460379
C  -0.315969  -1.719413  2.970751
C  -0.433200  -4.870925  1.082541
C  -0.765293  -3.978854  2.186444
C  -1.031935  -3.846527  -1.013635
C  -1.453159  -4.610241  0.075963
C  -0.125802  -1.988040  -2.843326
C  -1.476408  -2.032387  -2.534800
C  -1.946884  -3.000883  -1.651535
C  0.368301  -0.894942  -3.522974
C  1.102546  1.728926  -3.541427
C  -0.063478  1.377554  -4.259981
C  -0.439908  -0.034542  -4.265932
C  2.374983  3.389980  -2.218307
C  1.324969  3.067296  -3.185277
C  2.239714  4.145078  0.097943
C  1.820232  4.318047  -1.237912
C  1.541778  3.875440  2.447182
C  1.394685  4.542244  1.159306
C  -0.032476  2.671601  3.922811
C  0.220351  3.760397  3.059745
C  -1.238972  0.654035  4.191926
C  -1.366993  2.074426  3.912197
C  -1.667928  -1.410848  2.954939
C  -2.111004  -0.192196  3.477188
C  -2.176382  -3.600875  2.040998
C  -2.536183  -2.266281  2.283693
C  -2.650086  -4.169726  0.780368
C  -3.307837  -3.040668  -1.322531
C  -3.629649  -3.478708  0.033114
C  -2.316862  -1.018910  -3.006736
C  -3.555672  -0.844447  -2.389541
C  -4.125124  -1.862954  -1.613322
C  -1.875971  -0.127420  -4.002519
C  -1.257859  2.144610  -3.948421
C  -2.404500  1.235789  -3.946154
C  0.111501  3.751903  -2.764503
C  -1.077238  3.009830  -2.866119
C  0.389923  4.431757  -1.503111
C  -0.032557  4.609003  0.867867
C  -0.442274  4.187500  -0.405082
C  -0.759534  4.099048  2.028278
C  -2.219778  2.338351  2.836143
C  -1.794131  3.182342  1.813449
C  -3.403798  0.253658  3.163194
C  -3.436460  1.644656  2.742364
C  -3.713133  -1.733125  1.756837
C  -4.221095  -0.515159  2.225082
C  -4.322162  -2.361608  0.670606
C  -4.776129  -1.451398  -0.375593
C  -4.181688  0.401539  -2.449419
C  -4.721580  0.859450  -1.176904
C  -4.779700  -0.063280  -0.109384
C  -3.480499  1.519346  -3.077673
C  -2.022921  3.034300  -1.841004
C  -3.319679  2.550545  -2.053543
C  -1.619729  3.445097  -0.570977
C  -2.342086  3.016730  0.541641
C  -4.165988  1.717794  1.480210
C  -3.552846  2.329807  0.379883
C  -4.748939  0.404456  1.221951
C  -4.114790  2.154818  -0.892271
