100
# Created by libgraph from Fullerene (http://tinyurl.com/fullerenes)
C  4.302963  0.397390  2.295605
C  4.827036  1.377005  1.353842
C  5.074845  0.632724  0.128535
C  5.235935  -0.779298  0.487187
C  4.768019  -0.925814  1.865822
C  4.920432  -1.761253  -0.474016
C  4.262844  -3.005388  -0.060324
C  3.802711  -3.151424  1.262336
C  4.042802  -2.078158  2.236027
C  4.245950  0.956943  -0.947783
C  3.811589  -0.045736  -1.806844
C  4.319323  -1.347736  -1.740373
C  4.184787  2.635016  1.280171
C  3.870528  3.166625  -0.045802
C  3.759144  2.263474  -1.108473
C  2.958894  0.515581  2.653934
C  2.313640  1.755336  2.544746
C  3.002050  2.887754  2.098393
C  2.811583  -1.895352  2.998273
C  2.220485  -0.619147  3.002693
C  2.456404  -3.683755  1.503056
C  1.918974  -3.005576  2.680513
C  3.402213  -3.443466  -1.161857
C  2.083074  -3.846582  -0.905741
C  1.593118  -3.839053  0.398920
C  3.470151  -2.441423  -2.209272
C  2.759793  0.247202  -2.659778
C  1.861730  -0.775049  -2.934775
C  2.233136  -2.111210  -2.788564
C  3.080390  2.640629  -2.282795
C  2.552477  1.558602  -3.109284
C  2.779998  4.128255  0.102933
C  1.817391  4.250076  -0.922843
C  2.051969  3.677591  -2.189852
C  2.228782  3.941368  1.437229
C  0.935301  1.823628  2.754510
C  0.199490  2.870224  2.237697
C  0.829316  3.874501  1.507533
C  0.845565  -0.474735  3.222245
C  0.259808  0.765174  3.336399
C  0.555896  -2.708741  2.594241
C  0.023825  -1.569574  3.135099
C  0.204185  -3.840680  0.588327
C  -0.295055  -3.439525  1.807700
C  1.228325  -4.102629  -1.997340
C  -0.188926  -4.360625  -1.733133
C  -0.681795  -4.082264  -0.454816
C  1.305979  -3.128397  -3.074494
C  0.544462  -0.436972  -3.197421
C  -0.427550  -1.432069  -3.270209
C  -0.069042  -2.774870  -3.429480
C  1.178741  1.892068  -3.468321
C  0.200941  0.912246  -3.231802
C  0.896941  3.234722  -2.970668
C  0.575541  4.865960  -0.637958
C  -0.526768  4.573093  -1.543260
C  -0.355919  3.479344  -2.394283
C  0.055343  4.730725  0.715786
C  -1.187863  2.794731  2.322382
C  -1.925433  3.419770  1.324850
C  -1.392946  4.508750  0.620859
C  -1.033636  0.897944  3.866126
C  -1.807650  2.002649  3.305279
C  -1.347117  -1.486838  3.395011
C  -1.894953  -0.290408  3.883971
C  -1.636046  -3.609774  2.158470
C  -2.180937  -2.562904  3.032248
C  -2.059436  -3.915709  -0.231784
C  -2.583386  -3.836998  1.073913
C  -0.948449  -3.774609  -2.833236
C  -2.299298  -3.414224  -2.626179
C  -2.903133  -3.718217  -1.329349
C  -1.758839  -1.078578  -3.047244
C  -2.746449  -2.065766  -2.969687
C  -1.108505  1.258935  -2.902236
C  -2.074663  0.259264  -2.780007
C  -1.408135  2.578283  -2.568569
C  -1.773817  4.646755  -0.779257
C  -2.911560  3.928126  -1.211687
C  -2.723098  2.973752  -2.296014
C  -3.147388  2.857055  0.957915
C  -3.757803  3.244976  -0.235761
C  -3.141477  1.498411  2.980670
C  -3.697504  1.826878  1.733363
C  -3.205912  0.090077  3.371039
C  -3.493988  -2.189082  2.516880
C  -3.847543  -0.823502  2.506555
C  -3.736833  -2.966585  1.299634
C  -4.012687  -2.789349  -1.121537
C  -4.274404  -2.308665  0.180241
C  -3.927255  -1.776438  -2.164586
C  -3.327058  0.581212  -2.262515
C  -4.120906  -0.449668  -1.761799
C  -3.728608  1.917926  -2.142758
C  -4.515229  2.232581  -0.952966
C  -4.754002  1.057817  1.225269
C  -5.078825  1.181482  -0.196529
C  -4.797778  -0.359442  1.580274
C  -5.011506  -1.119198  0.351793
C  -5.037708  -0.168175  -0.751232
