100
# Created by libgraph from Fullerene (http://tinyurl.com/fullerenes)
C  3.880798  -0.076355  2.651565
C  3.862929  1.373438  2.467447
C  4.611484  1.674156  1.261768
C  5.253386  0.441439  0.804313
C  4.884999  -0.625237  1.740131
C  5.303873  0.181123  -0.577868
C  5.060321  -1.176981  -1.067890
C  4.811799  -2.227866  -0.164665
C  4.737718  -1.945366  1.269876
C  3.883448  2.461299  0.357142
C  3.785127  2.069154  -0.983332
C  4.656521  1.107997  -1.510799
C  2.627215  2.035534  2.577997
C  2.501985  3.361021  2.136465
C  3.155886  3.563802  0.853811
C  2.651139  -0.742974  2.718803
C  1.501140  -0.039702  3.056811
C  1.491178  1.337288  2.975013
C  3.636265  -2.749250  1.798651
C  2.533566  -2.079046  2.334681
C  3.750859  -3.193284  -0.458219
C  3.328759  -3.771215  0.808387
C  4.196731  -1.061400  -2.238137
C  2.957264  -1.711940  -2.212874
C  2.746266  -2.793083  -1.344245
C  4.215728  0.334560  -2.665681
C  2.737803  2.572511  -1.763468
C  2.521782  2.105251  -3.068241
C  3.153972  0.839841  -3.442348
C  2.181984  4.184309  -0.035209
C  1.836614  3.473160  -1.186423
C  1.167484  3.966693  2.054239
C  1.080582  4.688050  0.788650
C  0.273385  1.980994  3.123671
C  0.085064  3.147959  2.395871
C  0.310851  -0.705354  3.330537
C  -0.745164  -0.066171  3.996025
C  -0.765630  1.388528  3.860565
C  1.278206  -2.704524  2.375560
C  0.155285  -1.969144  2.777916
C  2.072413  -4.414237  0.838633
C  1.147997  -4.010167  1.890846
C  1.489652  -3.413545  -1.275962
C  1.262028  -4.456599  -0.372635
C  1.895758  -1.218439  -2.978123
C  0.630577  -1.799728  -2.834880
C  0.428008  -2.901926  -2.021137
C  2.073515  -0.077268  -3.784238
C  1.142215  2.078028  -3.552235
C  0.875896  0.724240  -4.028522
C  0.549485  3.563973  -1.711407
C  0.184193  2.658537  -2.702335
C  -0.204423  4.859720  0.219245
C  -0.385694  4.456435  -1.171749
C  -1.187923  3.391910  1.895851
C  -1.391144  4.380528  0.933064
C  -2.111837  1.773497  3.450919
C  -2.228813  2.541881  2.281178
C  -2.100004  -0.558191  3.750723
C  -2.975458  0.602880  3.590153
C  -1.132769  -2.421582  2.502611
C  -2.229574  -1.616504  2.836368
C  -0.192047  -4.416856  1.472716
C  -1.295549  -3.597705  1.768978
C  -0.113670  -4.704627  0.049592
C  -0.876710  -3.384035  -1.849904
C  -1.150897  -4.145846  -0.715092
C  -0.471368  -1.170163  -3.382230
C  -1.707955  -1.797648  -3.535401
C  -1.905904  -3.001078  -2.731461
C  -0.337508  0.178769  -3.594535
C  -1.139772  2.226627  -2.716795
C  -1.405424  0.960119  -3.201437
C  -1.800648  4.119875  -1.362124
C  -2.140582  2.980156  -2.110257
C  -2.433951  4.131280  -0.052557
C  -3.328658  2.397823  1.430383
C  -3.333150  3.077067  0.204116
C  -4.108093  0.477361  2.760601
C  -4.361309  1.510940  1.758444
C  -3.429919  -1.808664  2.148336
C  -4.403121  -0.804783  2.126143
C  -2.531826  -3.896373  1.175527
C  -3.631440  -2.961295  1.376829
C  -2.463388  -4.226161  -0.237551
C  -3.269930  -2.954914  -2.195235
C  -3.532584  -3.506091  -0.927202
C  -2.895882  -0.954633  -3.393168
C  -3.831751  -1.641364  -2.515707
C  -2.691028  0.415568  -3.134598
C  -3.471360  2.525750  -2.109067
C  -3.753190  1.205552  -2.675346
C  -4.160312  2.625060  -0.833242
C  -5.095755  0.894404  0.652254
C  -4.957755  1.414501  -0.647351
C  -5.026880  -0.550868  0.835866
C  -4.238699  -2.706863  0.075507
C  -4.575366  -1.371381  -0.211179
C  -4.383329  -0.844587  -1.495543
C  -4.655990  0.512418  -1.761178
