100
# Created by libgraph from Fullerene (http://tinyurl.com/fullerenes)
C  3.920027  -1.236620  2.431391
C  4.667090  -0.081221  1.941817
C  5.013598  -0.371609  0.553026
C  4.706766  -1.781544  0.307321
C  4.237302  -2.367068  1.562791
C  3.987346  -2.053911  -0.862048
C  3.029531  -3.080434  -0.848738
C  2.963677  -3.999763  0.195713
C  3.354876  -3.471342  1.497985
C  4.660591  0.565008  -0.436765
C  4.583946  0.150478  -1.774636
C  4.153106  -1.226479  -1.993055
C  4.210035  1.205608  2.289419
C  4.208843  2.247341  1.262953
C  4.315483  1.881082  -0.088186
C  2.572574  -1.050992  2.751032
C  2.099563  0.232618  3.044249
C  2.960741  1.344135  3.033243
C  2.123255  -3.397435  2.275766
C  1.673717  -2.122085  2.662204
C  1.713579  -4.742321  0.370810
C  1.135924  -4.266774  1.625751
C  2.045397  -3.090145  -1.827199
C  1.115017  -4.125524  -1.956315
C  0.867323  -4.916534  -0.752894
C  3.039645  -1.189324  -2.932232
C  1.919035  -1.946103  -2.584590
C  3.894031  0.996515  -2.746709
C  2.795013  0.204360  -3.291946
C  3.994632  2.827843  -1.080349
C  3.671240  2.347327  -2.421330
C  3.146223  3.197312  1.582001
C  2.414290  3.735830  0.504566
C  3.027879  3.872754  -0.743680
C  2.381163  2.645554  2.691685
C  0.725935  0.427690  3.216897
C  0.216532  1.704436  3.195495
C  0.991270  2.650430  2.567845
C  0.303894  -1.878772  2.838133
C  -0.154363  -0.635988  3.242594
C  -0.183616  -3.803328  1.566553
C  -0.615397  -2.834080  2.449211
C  -0.581573  -4.887534  -0.544484
C  -1.063817  -4.190773  0.563838
C  -0.185426  -3.790600  -2.547856
C  -1.204188  -4.529327  -1.814227
C  0.632219  -1.521807  -2.856297
C  -0.428253  -2.428052  -2.790944
C  1.496816  0.709002  -3.116631
C  0.411803  -0.165891  -3.029174
C  2.381325  2.933539  -2.771111
C  1.287080  2.074555  -2.912278
C  2.181963  4.096509  -1.913755
C  1.048169  4.037372  0.628498
C  0.382002  4.780547  -0.348231
C  0.873143  4.587958  -1.709528
C  0.329481  3.468292  1.672592
C  -1.076348  1.986673  3.637858
C  -1.752331  3.029799  2.865488
C  -1.066143  3.563890  1.754203
C  -1.514452  -0.426239  3.509716
C  -2.000292  0.866114  3.787494
C  -1.963301  -2.756224  2.806344
C  -2.425317  -1.485366  3.361656
C  -2.401189  -3.763659  0.624042
C  -2.926536  -3.193459  1.801605
C  -2.516211  -4.002550  -1.822712
C  -3.183805  -3.803124  -0.537910
C  -1.739117  -1.941732  -2.836442
C  -2.810636  -2.804819  -2.606085
C  -0.890853  0.315562  -2.973545
C  -1.971845  -0.569005  -2.991540
C  -0.014867  2.560693  -2.735622
C  -1.097915  1.671570  -2.754961
C  -0.206530  3.911553  -2.416774
C  -1.080761  4.704896  -0.399941
C  -1.450483  4.239431  -1.727093
C  -1.766128  4.081726  0.661136
C  -3.142347  2.610005  2.672973
C  -3.820708  2.973688  1.494703
C  -3.147826  3.858383  0.546508
C  -3.250189  1.227356  3.136532
C  -3.639447  -1.108729  2.649761
C  -3.749863  0.241418  2.272586
C  -3.919169  -2.134584  1.650936
C  -4.131890  -2.699001  -0.694696
C  -4.192169  -1.741672  0.334145
C  -4.034020  -2.222989  -2.072201
C  -3.281350  -0.069936  -3.042766
C  -4.294600  -0.868142  -2.359267
C  -2.375835  2.110216  -2.418244
C  -3.507351  1.329144  -2.672247
C  -2.478324  3.285365  -1.687973
C  -3.539504  3.448179  -0.791187
C  -4.518372  1.944351  0.717187
C  -4.516303  2.362638  -0.682311
C  -4.261831  0.596406  1.016774
C  -4.440006  -0.392498  0.035231
C  -4.783653  -0.031936  -1.273638
C  -4.567639  1.355893  -1.669916
