100
# Created by libgraph from Fullerene (http://tinyurl.com/fullerenes)
C  4.139831  -1.796647  1.515816
C  3.601627  -3.030435  0.960180
C  3.890053  -3.031623  -0.462366
C  4.715692  -1.861144  -0.769005
C  4.963516  -1.152875  0.489111
C  4.454472  -1.133924  -1.947783
C  4.592538  0.326502  -1.946988
C  4.963615  1.001683  -0.765720
C  5.098952  0.252541  0.485113
C  2.742204  -3.286133  -1.218628
C  2.374052  -2.411468  -2.236533
C  3.281176  -1.473815  -2.757170
C  2.279483  -3.391481  1.304783
C  1.657391  -4.431524  0.602990
C  1.896722  -4.340148  -0.827591
C  3.250058  -0.984452  2.213569
C  2.125741  -1.520548  2.822207
C  1.545846  -2.634023  2.227489
C  4.414299  1.019560  1.526549
C  3.381570  0.390797  2.219047
C  4.341092  2.287454  -0.434027
C  4.095212  2.338651  0.995571
C  3.507842  0.881085  -2.756802
C  2.766929  1.956052  -2.236478
C  3.278491  2.747548  -1.214844
C  2.733933  -0.231991  -3.296922
C  1.035215  -2.395891  -2.632608
C  0.517708  -1.229353  -3.167691
C  1.339126  -0.115730  -3.262927
C  0.613724  -4.489781  -1.510836
C  0.192670  -3.477733  -2.376188
C  0.231474  -4.679267  0.796698
C  -0.382287  -4.864145  -0.514422
C  0.190267  -2.885761  2.448844
C  -0.467326  -3.870508  1.700509
C  1.539205  -0.857190  3.909507
C  0.152710  -1.194877  4.208906
C  -0.523270  -2.057078  3.327813
C  2.370903  1.124030  2.833490
C  1.664649  0.597751  3.923887
C  2.851105  2.926635  1.309989
C  1.991855  2.315811  2.230981
C  2.636105  3.945526  -0.861638
C  2.428840  4.044709  0.573598
C  1.448118  2.182302  -2.639265
C  0.804119  3.392096  -2.382917
C  1.376438  4.313962  -1.504226
C  0.728651  1.126479  -3.170575
C  -0.840246  -1.138811  -3.470262
C  -1.421941  0.126616  -3.587845
C  -0.625235  1.270119  -3.474151
C  -1.121333  -3.501098  -2.867453
C  -1.620892  -2.298735  -3.534541
C  -1.694149  -4.360758  -0.667582
C  -2.149778  -3.957866  -1.941910
C  -1.858772  -3.983735  1.760522
C  -2.510974  -4.174196  0.468405
C  -1.917967  -2.021081  3.239507
C  -2.619887  -2.987128  2.503141
C  -0.523530  0.043177  4.602718
C  -1.907155  0.177766  4.376237
C  -2.629625  -0.945184  3.784468
C  0.350166  1.153485  4.223697
C  0.702977  2.805007  2.453145
C  -0.148053  2.120737  3.334982
C  1.083246  4.562372  0.810391
C  0.236537  3.891286  1.700941
C  0.485957  4.858370  -0.488816
C  -0.477345  3.633720  -2.898215
C  -1.387469  4.269566  -1.952111
C  -0.889175  4.589290  -0.668266
C  -1.206500  2.540593  -3.544678
C  -2.808307  0.238678  -3.695678
C  -3.388534  1.476536  -3.188679
C  -2.611783  2.656091  -3.173774
C  -3.030712  -2.148692  -3.182215
C  -3.608150  -0.859993  -3.175783
C  -3.253967  -3.006229  -2.022952
C  -3.571375  -3.176039  0.359821
C  -3.616202  -2.412452  -0.812691
C  -3.666080  -2.474850  1.633587
C  -3.635688  -0.412752  2.876608
C  -3.753151  -1.077596  1.646900
C  -2.426741  1.395715  3.753294
C  -3.526021  1.036374  2.870063
C  -1.524330  2.332882  3.235846
C  -1.114421  4.253801  1.733961
C  -2.025358  3.424254  2.512214
C  -1.745926  4.548271  0.451729
C  -2.648643  3.537631  -2.009321
C  -3.127529  3.012217  -0.806290
C  -2.964396  3.747936  0.370236
C  -4.084201  1.106537  -1.960906
C  -3.672403  1.724868  -0.772280
C  -4.223918  -0.352399  -1.951701
C  -3.926011  -1.046762  -0.771553
C  -3.833618  -0.362761  0.444570
C  -3.503344  1.718342  1.646398
C  -3.707984  1.030967  0.443846
C  -3.142399  3.074283  1.649931
