100
# Created by libgraph from Fullerene (http://tinyurl.com/fullerenes)
C  3.328395  -1.992470  2.830597
C  3.471654  -3.155921  1.966599
C  4.155588  -2.655443  0.782221
C  4.930766  -1.484392  1.185997
C  4.395793  -1.049499  2.477666
C  5.261814  -0.538230  0.197234
C  5.168316  0.891503  0.495822
C  4.647786  1.319121  1.732777
C  4.225201  0.326707  2.728925
C  3.383044  -2.568707  -0.380866
C  3.658037  -1.569632  -1.323988
C  4.761349  -0.725852  -1.162094
C  2.352099  -4.005448  1.814370
C  1.967552  -4.350456  0.452414
C  2.274839  -3.413822  -0.538407
C  2.039238  -1.476351  2.987331
C  0.932935  -2.321416  2.828731
C  1.099533  -3.674799  2.483944
C  2.944321  0.769831  3.275103
C  1.845230  -0.102204  3.173054
C  3.677525  2.414654  1.763182
C  2.720792  2.141399  2.828634
C  4.735559  1.568548  -0.731283
C  3.636922  2.435315  -0.680417
C  3.138115  2.864794  0.546525
C  4.735045  0.581811  -1.805692
C  2.763780  -1.352717  -2.374744
C  2.980751  -0.320410  -3.306370
C  3.880715  0.764110  -2.912353
C  1.415949  -3.238224  -1.624274
C  1.583718  -2.103247  -2.411865
C  0.590089  -4.848455  0.491550
C  -0.210035  -4.806759  -0.679778
C  0.341882  -4.116364  -1.842318
C  0.017224  -4.322497  1.727968
C  -0.354143  -1.777173  2.867583
C  -1.430838  -2.535177  2.480557
C  -1.151099  -3.568185  1.610560
C  0.537833  0.404137  3.119870
C  -0.559369  -0.436328  3.112387
C  1.409278  2.503790  2.501414
C  0.333209  1.746012  2.885892
C  1.983297  3.650410  0.544873
C  1.137598  3.534354  1.627881
C  2.952853  2.796150  -1.853211
C  2.015210  3.854216  -1.861767
C  1.622683  4.402716  -0.569975
C  3.116960  2.010664  -3.003344
C  1.807068  0.284582  -3.932057
C  1.872786  1.730357  -3.706866
C  0.507325  -1.620278  -3.134080
C  0.595703  -0.340028  -3.635430
C  -0.780486  -3.616156  -2.646860
C  -0.693558  -2.331750  -3.208991
C  -1.619879  -4.401898  -0.601612
C  -2.005638  -3.838239  -1.888796
C  -1.992291  -3.666966  0.518958
C  -2.739639  -2.160598  2.809674
C  -3.688519  -2.422808  1.736049
C  -3.137731  -2.867535  0.520513
C  -1.863773  0.077765  3.170759
C  -2.963646  -0.789936  3.262521
C  -0.949264  2.297721  2.841972
C  -2.056370  1.454309  2.992854
C  -0.021492  4.302614  1.749978
C  -1.107497  3.655502  2.501022
C  0.214533  4.811616  -0.651189
C  -0.589520  4.844335  0.518360
C  0.793056  3.637573  -2.626393
C  -0.333365  4.130294  -1.821024
C  0.711935  2.358501  -3.197474
C  -0.577065  0.367815  -3.626064
C  -0.491135  1.650636  -3.131103
C  -1.854261  -1.706811  -3.720067
C  -1.786822  -0.259747  -3.935033
C  -2.942162  -2.778527  -1.877628
C  -3.101513  -1.990599  -3.024311
C  -3.631895  -2.427934  -0.706174
C  -4.657834  -1.326354  1.707668
C  -5.170932  -0.891033  0.471245
C  -4.730978  -1.561663  -0.755768
C  -4.240364  -0.340380  2.711842
C  -3.341895  1.977969  2.832045
C  -4.408451  1.038021  2.467905
C  -2.357144  3.994781  1.830484
C  -3.478685  3.146115  1.973130
C  -1.968353  4.350517  0.472348
C  -1.410358  3.253305  -1.609498
C  -2.271234  3.422000  -0.525559
C  -1.569949  2.124764  -2.406390
C  -2.962989  0.340985  -3.311863
C  -2.747073  1.368585  -2.374004
C  -3.865564  -0.745027  -2.929401
C  -4.724680  -0.569116  -1.825519
C  -5.261247  0.540276  0.179641
C  -4.752080  0.734953  -1.175681
C  -4.935853  1.480513  1.175702
C  -4.158235  2.653353  0.782895
C  -3.379265  2.573811  -0.375359
C  -3.646717  1.579749  -1.326280
