100
# Created by libgraph from Fullerene (http://tinyurl.com/fullerenes)
C  4.186834  -2.199756  0.468815
C  4.631189  -0.843495  0.769521
C  4.879728  -0.170069  -0.492272
C  4.701321  -1.139063  -1.576135
C  4.332268  -2.422540  -0.972325
C  4.086172  -0.717125  -2.770400
C  3.149556  -1.609010  -3.463013
C  2.822031  -2.866887  -2.907538
C  3.432321  -3.282258  -1.640604
C  4.254194  1.080438  -0.566506
C  3.482746  1.407414  -1.681496
C  3.560970  0.648183  -2.864106
C  3.897621  -0.100344  1.720174
C  4.135922  1.275723  1.843581
C  4.305744  1.929768  0.554795
C  2.997853  -2.617658  1.062884
C  2.553484  -2.037426  2.240309
C  2.848792  -0.695131  2.431818
C  2.402615  -3.968611  -0.856208
C  2.154889  -3.522518  0.447457
C  1.423280  -3.314486  -2.888483
C  1.202950  -4.086831  -1.672818
C  2.076087  -0.780697  -4.013030
C  0.752741  -1.144234  -3.741373
C  0.441127  -2.374522  -3.200987
C  2.384746  0.615115  -3.729947
C  2.534198  2.430618  -1.562309
C  1.529964  2.529706  -2.511089
C  1.321532  1.430602  -3.319330
C  3.476544  3.132278  0.552053
C  2.503558  3.261426  -0.445049
C  3.220711  2.096198  2.636000
C  3.029991  3.357972  1.924548
C  1.992374  0.073236  3.217640
C  2.085051  1.467359  3.163863
C  1.723436  -2.757061  3.113247
C  0.888513  -1.962549  4.004854
C  0.969350  -0.558282  3.941507
C  0.975593  -3.857593  1.120786
C  0.886737  -3.795099  2.513571
C  -0.022433  -3.859469  -1.013455
C  -0.146074  -4.087392  0.346003
C  -0.885281  -2.564291  -2.822395
C  -1.104579  -3.261264  -1.646884
C  -0.293225  -0.229180  -3.862388
C  -1.609014  -0.639552  -4.104898
C  -1.925665  -1.939090  -3.525338
C  -0.000407  1.083871  -3.554169
C  0.672560  3.633255  -2.560157
C  -0.688781  3.346978  -3.026452
C  -1.014533  2.010524  -3.322322
C  1.423728  4.139606  -0.284098
C  0.575531  4.460916  -1.364609
C  1.836492  4.076059  2.152925
C  1.111492  4.608998  0.999056
C  0.973858  2.225442  3.534190
C  0.831730  3.540915  3.073758
C  -0.061818  0.201913  4.511176
C  -0.067922  1.641745  4.269909
C  -0.467364  -2.499441  3.928678
C  -1.492517  -1.567099  3.711916
C  -1.415597  -0.298660  4.314462
C  -0.445133  -3.717884  3.113113
C  -1.390748  -4.389262  0.902614
C  -1.569164  -4.050647  2.315809
C  -2.354488  -3.226410  -1.024564
C  -2.577114  -3.934234  0.169796
C  -3.210480  -1.833399  -2.836708
C  -3.333254  -2.371807  -1.543655
C  -2.689678  0.282354  -3.760534
C  -3.698697  -0.464436  -3.010642
C  -2.339621  1.556879  -3.276346
C  -1.618820  4.079962  -2.170752
C  -2.886294  3.522377  -1.894528
C  -3.308108  2.337851  -2.641658
C  -0.838458  4.617612  -1.056677
C  -0.313169  4.583084  1.303621
C  -1.166099  4.232072  0.245012
C  -0.490355  3.894344  2.575822
C  -1.391920  1.999548  3.782187
C  -1.423529  2.851106  2.663044
C  -2.206988  0.790001  3.751517
C  -2.527127  -1.862722  2.816495
C  -3.285508  -0.817258  2.294840
C  -2.892955  0.487934  2.573159
C  -2.731054  -3.172264  2.374727
C  -3.495710  -3.350221  1.137929
C  -4.393906  -1.961660  -0.730449
C  -4.355130  -2.322670  0.688909
C  -4.277081  0.187392  -1.901525
C  -4.801621  -0.565244  -0.830246
C  -4.254910  1.596817  -1.816866
C  -3.283709  3.308794  -0.504310
C  -4.172708  2.148277  -0.471219
C  -2.271296  3.406902  0.458152
C  -2.291176  2.595775  1.591789
C  -3.095786  1.458251  1.598103
C  -4.354916  -1.067453  1.430377
C  -4.711758  0.007842  0.505614
C  -4.016444  1.224822  0.570734
