100
# Created by libgraph from Fullerene (http://tinyurl.com/fullerenes)
C  3.628467  -0.808274  2.773399
C  4.311429  -1.543127  1.718500
C  5.016715  -0.578543  0.891318
C  4.965482  0.717049  1.565614
C  4.167177  0.554914  2.783152
C  4.843869  1.881061  0.788189
C  3.987879  2.978358  1.246317
C  3.282899  2.865666  2.467101
C  3.365010  1.618852  3.239456
C  4.745816  -0.670185  -0.484229
C  4.555892  0.490076  -1.247750
C  4.693016  1.764048  -0.664119
C  3.576070  -2.523620  1.038019
C  4.025074  -2.989014  -0.198534
C  4.580616  -1.947262  -1.055012
C  2.240669  -0.966918  2.876564
C  1.617932  -2.114196  2.361463
C  2.340609  -2.955188  1.517767
C  2.022594  1.308011  3.727880
C  1.452587  0.065899  3.377162
C  1.897038  3.344256  2.558013
C  1.177242  2.468840  3.472548
C  3.292916  3.513696  0.075157
C  1.907268  3.669499  0.155206
C  1.239552  3.638750  1.360674
C  3.777040  2.806247  -1.111108
C  4.145901  0.391839  -2.589131
C  3.210746  1.420855  -3.032686
C  2.844110  2.392599  -2.078091
C  3.939623  -2.060235  -2.362825
C  3.687085  -0.896129  -3.113884
C  3.124493  -3.809918  -1.003196
C  2.870444  -3.050203  -2.225172
C  1.785395  -4.154238  1.057686
C  2.048726  -4.452359  -0.349334
C  0.250017  -2.347918  2.570178
C  -0.357604  -3.508674  2.088654
C  0.364456  -4.411221  1.292323
C  0.062617  -0.109802  3.386574
C  -0.531277  -1.331366  3.115249
C  -0.138915  2.177325  3.091021
C  -0.733029  1.006966  3.469420
C  -0.152475  3.715985  1.292556
C  -0.854356  2.927630  2.180905
C  1.118366  3.695926  -0.987745
C  -0.117667  4.364722  -1.035562
C  -0.789459  4.416121  0.258893
C  1.518527  2.850872  -1.998759
C  2.133794  0.760856  -3.766639
C  0.826212  1.153129  -3.469141
C  0.540898  2.322308  -2.812708
C  2.355085  -0.682998  -3.676736
C  1.551627  -2.634759  -2.443188
C  1.302883  -1.463184  -3.162191
C  0.748714  -4.416073  -1.006973
C  0.485067  -3.324548  -1.846183
C  -0.256025  -4.702358  0.011362
C  -1.740921  -3.700999  2.257249
C  -2.379575  -4.093888  1.012723
C  -1.518962  -4.103698  -0.091317
C  -1.924110  -1.457598  3.230734
C  -2.558985  -2.641279  2.839793
C  -2.101110  0.963813  3.725905
C  -2.715489  -0.354724  3.611598
C  -2.231249  2.728790  2.053444
C  -2.920416  1.923951  2.982856
C  -2.212525  4.127824  0.055052
C  -2.866020  3.220758  0.910771
C  -1.108966  3.924002  -2.023560
C  -2.416190  3.884096  -1.371757
C  -0.770061  2.824802  -2.829087
C  -0.234803  0.301730  -3.649304
C  -1.496279  0.771278  -4.000217
C  -1.770899  2.139874  -3.551926
C  -0.010407  -0.992898  -3.249307
C  -0.827779  -2.843808  -1.990357
C  -1.082068  -1.734992  -2.786899
C  -1.860289  -3.377431  -1.225204
C  -3.663718  -3.396608  0.892621
C  -4.107995  -2.953827  -0.370182
C  -3.199478  -3.085656  -1.504597
C  -3.758224  -2.476380  2.024067
C  -3.934728  -0.197536  2.826224
C  -4.154668  -1.143448  1.809165
C  -4.120552  1.226618  2.534764
C  -4.120883  2.722615  0.543537
C  -4.700277  1.617764  1.313091
C  -3.297806  2.844955  -1.747213
C  -4.329519  2.454704  -0.872653
C  -3.107042  2.151408  -2.958291
C  -2.641649  -0.061725  -3.648291
C  -3.661689  0.799216  -3.063846
C  -2.393823  -1.282015  -2.991193
C  -3.467612  -1.983687  -2.429960
C  -4.759025  -1.651044  -0.493932
C  -4.492552  -1.136713  -1.832254
C  -4.684896  -0.745789  0.573068
C  -5.084673  0.581732  0.359233
C  -4.895568  1.113784  -0.988296
C  -4.371359  0.261980  -1.973679
