100
# Created by libgraph from Fullerene (http://tinyurl.com/fullerenes)
C  2.708171  1.025477  3.407268
C  2.941871  2.320192  2.769143
C  4.045747  2.160915  1.831600
C  4.476873  0.766106  1.901385
C  3.818542  0.143665  3.049175
C  4.506057  0.068921  0.688474
C  4.147357  -1.287993  0.664380
C  4.037684  -2.016717  1.850971
C  3.624327  -1.257058  3.026823
C  3.869300  2.758048  0.564546
C  4.449348  2.173272  -0.579140
C  4.804821  0.760330  -0.499173
C  1.823996  3.028796  2.298426
C  2.007225  4.112492  1.439025
C  3.037082  3.893053  0.430802
C  1.421925  0.487172  3.312294
C  0.328703  1.319962  3.086577
C  0.529348  2.586807  2.573003
C  2.310118  -1.771553  3.393546
C  1.221036  -0.889978  3.311492
C  3.274731  -3.265449  1.833885
C  2.133615  -3.060363  2.721906
C  3.798618  -1.880296  -0.548925
C  3.468016  -3.242538  -0.637025
C  3.079162  -3.921343  0.596496
C  4.408281  0.130645  -1.753515
C  3.676092  -1.055253  -1.664359
C  3.802062  2.395317  -1.868954
C  3.915561  1.170702  -2.655982
C  2.411911  4.089587  -0.873872
C  2.573979  3.058888  -1.809025
C  0.839397  4.684152  0.769643
C  1.072605  4.632089  -0.662736
C  -0.589376  3.330913  2.198818
C  -0.436679  4.254305  1.169537
C  -0.973301  0.848715  3.232663
C  -2.054561  1.727750  3.343332
C  -1.849131  3.052037  2.757288
C  -0.076136  -1.369295  3.092040
C  -1.174008  -0.519148  3.111853
C  0.867820  -3.324566  2.188611
C  -0.244466  -2.677711  2.688375
C  1.785117  -4.555946  0.333857
C  0.682313  -4.128935  1.074752
C  2.527006  -3.637192  -1.684098
C  1.590618  -4.604055  -1.112448
C  2.732970  -1.396662  -2.624339
C  2.006900  -2.577708  -2.433016
C  2.896475  0.866393  -3.583074
C  2.439273  -0.519870  -3.678720
C  1.500432  2.631188  -2.600528
C  1.708054  1.720284  -3.651900
C  -0.013554  4.076333  -1.354041
C  0.201268  3.036289  -2.260318
C  -1.552189  4.638833  0.420778
C  -1.316494  4.481352  -1.004638
C  -3.026595  3.368641  1.944681
C  -2.864527  4.075729  0.737220
C  -3.362238  1.242080  2.916329
C  -3.899078  2.194531  1.955790
C  -2.449440  -1.023007  2.861492
C  -3.473525  -0.117762  2.575496
C  -1.499399  -3.287907  2.639291
C  -2.662461  -2.409142  2.780114
C  -0.629175  -4.391709  0.648732
C  -1.730630  -4.177372  1.507715
C  0.272795  -4.658920  -1.630463
C  -0.845066  -4.753306  -0.686759
C  0.696955  -2.608543  -2.887768
C  -0.137472  -3.711942  -2.669490
C  1.039154  -0.507526  -4.079372
C  0.195743  -1.434901  -3.436744
C  0.585181  0.881814  -4.067459
C  -0.884442  2.298504  -2.728095
C  -0.636349  1.133522  -3.435021
C  -2.445776  3.752714  -1.571129
C  -2.199110  2.634059  -2.374240
C  -3.412735  3.521499  -0.501464
C  -4.329981  1.628760  0.743847
C  -4.042850  2.263243  -0.472480
C  -4.571144  -0.550507  1.827286
C  -4.969784  0.373674  0.772133
C  -3.666246  -2.851027  1.814506
C  -4.564037  -1.903024  1.272999
C  -2.991153  -3.772511  0.898306
C  -2.018431  -4.137262  -1.300190
C  -2.896967  -3.424530  -0.453271
C  -1.567814  -3.445238  -2.499931
C  -1.141153  -1.152111  -3.192397
C  -1.969790  -2.110913  -2.633996
C  -1.596006  0.144245  -3.342988
C  -3.275795  1.786318  -2.706288
C  -2.951824  0.472624  -3.249801
C  -4.302012  1.608368  -1.687197
C  -5.091573  -0.390656  -0.467666
C  -4.705001  0.201275  -1.685790
C  -4.656507  -1.758935  -0.176257
C  -3.601057  -2.300091  -0.914707
C  -3.154120  -1.658508  -2.064005
C  -3.790476  -0.515598  -2.573904
