100
# Created by libgraph from Fullerene (http://tinyurl.com/fullerenes)
C  3.494829  -2.345263  2.078517
C  3.518771  -3.148418  0.858730
C  4.404232  -2.484330  -0.081425
C  5.114905  -1.420336  0.632067
C  4.591382  -1.378252  2.000806
C  5.400399  -0.222009  -0.052389
C  5.220069  1.062527  0.627012
C  4.767264  1.106640  1.957859
C  4.469339  -0.140418  2.664220
C  3.794372  -2.201431  -1.312645
C  3.934013  -0.923791  -1.868381
C  4.931521  -0.051837  -1.428524
C  2.283244  -3.570596  0.332441
C  2.206781  -4.023066  -0.986355
C  2.947293  -3.167795  -1.902396
C  2.251591  -1.874251  2.514143
C  1.090802  -2.543779  2.136593
C  1.106180  -3.401525  1.056675
C  3.272917  0.104601  3.468893
C  2.139764  -0.674179  3.221196
C  3.727938  2.067429  2.329536
C  3.058825  1.546248  3.511514
C  4.613075  1.977567  -0.336127
C  3.378136  2.560308  -0.022846
C  2.931305  2.588720  1.303948
C  4.740554  1.375227  -1.657712
C  2.983595  -0.485226  -2.788559
C  3.058377  0.776469  -3.384052
C  3.859809  1.776994  -2.684057
C  1.996937  -2.680095  -2.897738
C  1.878076  -1.292813  -3.007273
C  0.887589  -4.266232  -1.570543
C  0.760842  -3.444949  -2.763427
C  -0.108353  -3.938226  0.625629
C  -0.237520  -4.236085  -0.728591
C  -0.124541  -2.244890  2.730586
C  -1.214866  -3.120906  2.657575
C  -1.197467  -4.032962  1.512803
C  0.867315  -0.201569  3.572522
C  -0.258627  -0.967723  3.240968
C  1.777149  2.052382  3.813118
C  0.731338  1.083193  4.120889
C  1.640863  3.051054  1.594663
C  1.161566  3.027733  2.915037
C  2.550426  3.027106  -1.051615
C  1.290113  3.550470  -0.757060
C  0.795710  3.428065  0.542505
C  2.943496  2.865522  -2.383768
C  1.796715  1.409814  -3.778334
C  1.868994  2.807779  -3.368936
C  0.649801  -0.671133  -3.215628
C  0.618485  0.704642  -3.477622
C  -0.475971  -2.777930  -2.807072
C  -0.528726  -1.395182  -3.020675
C  -1.510131  -4.345754  -1.295853
C  -1.633168  -3.502405  -2.474132
C  -2.544817  -4.053566  0.932979
C  -2.697395  -4.148070  -0.464579
C  -2.557794  -2.547851  2.755505
C  -3.359911  -3.079623  1.662406
C  -1.520495  -0.401826  3.253089
C  -2.662109  -1.163055  2.977928
C  -0.554793  1.739167  3.893486
C  -1.599182  0.970883  3.349753
C  -0.283257  2.947059  3.120521
C  -0.575088  3.546247  0.769803
C  -1.087000  3.123097  1.986046
C  0.501031  4.076577  -1.789291
C  -0.932848  4.221245  -1.534623
C  -1.444775  3.929711  -0.259140
C  0.652649  3.471918  -3.108209
C  -0.585646  1.394509  -3.307645
C  -0.612723  2.792675  -3.366639
C  -1.740424  -0.706622  -2.899168
C  -1.741188  0.689685  -2.951712
C  -2.895476  -2.784686  -2.392677
C  -2.915560  -1.399885  -2.592099
C  -3.561338  -3.195847  -1.163538
C  -4.105205  -2.116172  0.957174
C  -4.195414  -2.173083  -0.438385
C  -3.898164  -0.513687  2.781529
C  -4.673697  -1.042376  1.668728
C  -2.683810  1.563734  2.722472
C  -3.929460  0.946832  2.684475
C  -2.405559  2.692717  1.984185
C  -2.849338  3.870649  -0.084858
C  -3.351716  3.283837  1.152937
C  -1.625623  3.478737  -2.575413
C  -2.719504  2.720142  -2.130634
C  -3.583176  3.262118  -1.178575
C  -2.867951  1.390065  -2.515316
C  -4.111705  -0.715596  -2.335254
C  -4.095113  0.739945  -2.353996
C  -4.837909  -1.149724  -1.154102
C  -5.257490  0.087161  0.937618
C  -5.330310  0.039577  -0.464305
C  -4.835493  1.323897  1.601156
C  -4.540573  2.479690  0.837474
C  -4.649485  2.426583  -0.622528
C  -4.952494  1.208074  -1.263286
