100
# Created by libgraph from Fullerene (http://tinyurl.com/fullerenes)
C  4.602207  -0.134717  1.171939
C  4.667317  1.266041  0.777929
C  4.808632  1.307997  -0.665792
C  5.047339  -0.056150  -1.138554
C  5.077232  -0.927005  0.038585
C  4.409779  -0.488022  -2.317847
C  3.925440  -1.870594  -2.412122
C  4.105438  -2.763325  -1.334293
C  4.669067  -2.268229  -0.077464
C  3.813159  2.089652  -1.263476
C  3.029765  1.552665  -2.283245
C  3.419941  0.383476  -2.961499
C  3.703237  2.138304  1.310020
C  3.532558  3.404171  0.742372
C  3.524947  3.352433  -0.710982
C  3.446555  -0.583405  1.824671
C  2.597614  0.340273  2.448032
C  2.825564  1.708538  2.301634
C  3.849934  -2.823894  0.994627
C  3.086391  -1.935441  1.758646
C  3.036735  -3.704882  -0.974273
C  3.148960  -3.978508  0.449362
C  2.623054  -1.839877  -3.071279
C  1.547142  -2.498832  -2.452416
C  1.752668  -3.451307  -1.458662
C  2.363425  -0.468083  -3.500528
C  1.774286  2.124565  -2.518128
C  0.782235  1.340025  -3.079915
C  1.058875  0.008265  -3.327831
C  2.335557  4.056140  -1.179927
C  1.466698  3.405494  -2.063212
C  2.413569  4.237639  1.183321
C  1.641921  4.583778  -0.012130
C  2.096055  2.637227  3.053432
C  1.737741  3.880439  2.369494
C  1.450094  -0.098270  3.108018
C  0.617214  0.808651  3.774715
C  0.910324  2.180430  3.772621
C  1.903189  -2.373425  2.363214
C  1.064278  -1.427770  2.967074
C  1.997977  -4.474180  1.100452
C  1.511859  -3.723643  2.250905
C  0.639959  -4.060695  -0.856360
C  0.804654  -4.793333  0.319095
C  0.233612  -2.123379  -2.727441
C  -0.844305  -2.917192  -2.374493
C  -0.653161  -3.838247  -1.351360
C  -0.006918  -0.863307  -3.215869
C  -0.514200  1.836551  -3.241548
C  -1.573851  0.936019  -3.414496
C  -1.311785  -0.435329  -3.435295
C  0.220418  3.993149  -2.346175
C  -0.754708  3.206329  -3.097931
C  0.248483  4.395898  -0.002785
C  -0.467301  4.559946  -1.197717
C  0.279301  3.958063  2.379616
C  -0.394656  3.936536  1.149983
C  -0.198510  3.050074  3.414129
C  -0.598170  0.374838  4.335312
C  -1.708524  1.270134  4.043615
C  -1.398345  2.355831  3.212159
C  -0.234023  -1.787828  3.289932
C  -1.060328  -0.984211  4.080501
C  0.076695  -3.998552  2.372238
C  -0.741699  -2.905488  2.654274
C  -0.326051  -4.831348  1.238592
C  -1.763858  -4.428019  -0.744340
C  -1.624950  -4.693427  0.685165
C  -2.104459  -2.684842  -2.947733
C  -3.260044  -3.023957  -2.120757
C  -3.071473  -3.807348  -0.959490
C  -2.355009  -1.365455  -3.541593
C  -2.887675  1.404725  -3.438044
C  -3.929303  0.454156  -3.043127
C  -3.684244  -0.935082  -3.126407
C  -2.079189  3.568218  -2.598981
C  -3.155384  2.667442  -2.760765
C  -1.859509  4.126113  -1.269006
C  -1.675471  3.367117  1.041711
C  -2.368452  3.413263  -0.177053
C  -2.217927  2.660742  2.124545
C  -2.896887  0.468155  3.745088
C  -3.826715  0.928195  2.787315
C  -3.531654  2.175323  2.086647
C  -2.462994  -0.925804  3.678190
C  -2.048100  -2.821436  2.204025
C  -2.763655  -1.665531  2.525113
C  -2.568098  -3.793994  1.347279
C  -3.488540  -3.273903  0.335413
C  -4.053078  -1.800979  -2.009998
C  -4.149521  -1.188318  -0.756513
C  -3.808495  -1.905110  0.392739
C  -4.503886  0.974702  -1.805354
C  -4.486313  0.171090  -0.655050
C  -3.998712  2.331552  -1.615753
C  -3.532895  2.653548  -0.332975
C  -4.189121  2.122503  0.785076
C  -4.361897  0.002257  1.787734
C  -4.704961  0.772639  0.600060
C  -3.680093  -1.199637  1.591373
