100
# Created by libgraph from Fullerene (http://tinyurl.com/fullerenes)
C  3.636371  -3.174660  0.928711
C  3.670186  -3.562850  -0.472417
C  4.208592  -2.398650  -1.166318
C  5.044053  -1.671558  -0.216443
C  4.638499  -2.117358  1.117947
C  5.292592  -0.307580  -0.470622
C  5.214348  0.661713  0.623082
C  4.769903  0.250071  1.895798
C  4.467370  -1.166878  2.142263
C  3.302872  -1.657147  -1.929250
C  3.535068  -0.290389  -2.151970
C  4.679505  0.323240  -1.637567
C  2.530786  -4.224853  -0.980829
C  1.877462  -3.624693  -2.135623
C  2.114488  -2.256948  -2.362518
C  2.372005  -3.001045  1.504171
C  1.280779  -3.743191  1.026886
C  1.442034  -4.581889  -0.077516
C  3.244313  -1.230880  2.939614
C  2.168297  -2.011828  2.465400
C  3.759605  1.046651  2.593794
C  2.907923  0.128981  3.342675
C  4.698947  1.915480  0.059138
C  3.585248  2.519136  0.651740
C  3.115809  2.068374  1.878871
C  4.634216  1.759213  -1.388592
C  2.565926  0.488027  -2.792696
C  2.754921  1.865304  -3.001378
C  3.712706  2.536305  -2.125768
C  1.116950  -1.446363  -2.906690
C  1.342776  -0.097922  -3.107725
C  0.473651  -4.057586  -2.118384
C  -0.498705  -3.092685  -2.403129
C  -0.161630  -1.948309  -3.101021
C  0.265036  -4.835558  -0.898617
C  -0.001000  -3.563409  1.567913
C  -1.076037  -4.341663  1.125244
C  -0.995981  -4.803163  -0.258530
C  0.850531  -1.725085  2.852998
C  -0.219857  -2.514253  2.458933
C  1.546481  0.441349  3.334091
C  0.595385  -0.533020  3.492632
C  1.890065  2.565335  2.313019
C  1.070243  1.687536  2.997056
C  2.852675  3.504463  -0.029900
C  1.918855  4.323221  0.643233
C  1.454054  3.841594  1.937145
C  2.969860  3.584093  -1.423276
C  1.559933  2.710901  -3.088605
C  1.706119  3.793018  -2.122000
C  0.271189  0.698995  -3.469123
C  0.342088  2.023880  -3.094565
C  -1.133476  -1.261429  -3.846672
C  -0.886077  0.161965  -4.046912
C  -1.789784  -3.172308  -1.897094
C  -2.707884  -2.174903  -2.252127
C  -2.520722  -1.418945  -3.420627
C  -2.103499  -4.155029  -0.957584
C  -2.431020  -3.833985  1.338079
C  -3.087446  -3.756425  0.041183
C  -1.518603  -2.151108  2.847170
C  -2.602810  -2.716872  2.172411
C  -0.621083  -0.238217  4.114411
C  -1.723113  -1.149576  3.816323
C  -0.278164  1.968994  3.179062
C  -1.106900  1.131257  3.948265
C  0.009052  4.080853  2.022190
C  -0.804335  3.008909  2.425502
C  0.741261  4.747505  -0.105293
C  -0.396425  4.802074  0.816233
C  0.577189  4.094580  -1.330891
C  -0.813102  2.574059  -2.566720
C  -0.700142  3.649336  -1.693630
C  -2.120680  0.880246  -3.728935
C  -2.039518  1.943965  -2.808586
C  -3.174313  -0.115628  -3.523870
C  -3.740929  -1.869305  -1.362944
C  -4.623147  -0.815865  -1.627935
C  -4.235891  0.169300  -2.641581
C  -3.814315  -2.565961  -0.151391
C  -3.856255  -2.092477  2.223895
C  -4.520120  -2.019602  0.930894
C  -2.935840  -0.337922  3.691637
C  -3.988110  -0.789325  2.870603
C  -2.510945  1.055668  3.562917
C  -2.119882  2.880406  1.988453
C  -2.861413  1.760921  2.399385
C  -1.695817  4.601772  0.293321
C  -2.637324  3.792518  1.065753
C  -1.845663  4.185050  -1.098664
C  -3.147542  2.310095  -2.040177
C  -3.100455  3.439375  -1.204378
C  -4.277449  1.482036  -2.001663
C  -5.188304  -0.094495  -0.491278
C  -4.828718  1.311153  -0.665454
C  -5.101271  -0.686236  0.785807
C  -4.581128  0.119690  1.886899
C  -3.887151  1.294093  1.572027
C  -3.624106  3.250532  0.139784
C  -4.144139  1.963790  0.370918
