100
# Created by libgraph from Fullerene (http://tinyurl.com/fullerenes)
C  4.161887  -2.202434  1.579915
C  4.879616  -1.483820  0.538718
C  4.560980  -2.126453  -0.731879
C  3.707043  -3.279087  -0.446616
C  3.627330  -3.435441  1.003837
C  2.532955  -3.380559  -1.202172
C  1.359089  -3.858528  -0.597635
C  1.398515  -4.466051  0.661214
C  2.462655  -4.015632  1.550636
C  4.224214  -1.287111  -1.808890
C  3.385687  -1.764518  -2.838490
C  2.530494  -2.909009  -2.526642
C  4.851727  -0.078873  0.615296
C  5.033149  0.682483  -0.548418
C  4.666075  0.052419  -1.815531
C  3.322611  -1.439616  2.394790
C  3.719609  -0.161279  2.793772
C  4.570267  0.549288  1.843605
C  1.797206  -3.289409  2.625476
C  2.053806  -1.919190  2.709407
C  0.169673  -4.492882  1.449995
C  0.404172  -3.716061  2.654872
C  0.125084  -3.618886  -1.205012
C  -1.079792  -3.925979  -0.561476
C  -1.042650  -4.205339  0.802540
C  1.235636  -2.695730  -3.165351
C  0.082572  -2.931697  -2.403842
C  2.583099  -0.795201  -3.578458
C  1.265188  -1.389570  -3.816082
C  3.855580  1.004382  -2.563565
C  2.653203  0.520305  -3.094809
C  4.559739  2.066433  -0.577003
C  3.826134  2.264966  -1.821238
C  4.154453  1.949438  1.829515
C  4.002804  2.610499  0.596442
C  2.698458  0.765378  3.264524
C  3.054011  2.093025  2.777443
C  1.038563  -1.001329  2.996962
C  1.362743  0.351972  3.135846
C  -0.611247  -2.770150  2.858248
C  -0.299095  -1.414587  3.017905
C  -2.197902  -4.041974  1.573556
C  -1.940313  -3.201691  2.730870
C  -2.304847  -3.821644  -1.252459
C  -3.506656  -3.541345  -0.462095
C  -3.435983  -3.585947  0.943336
C  -1.132597  -2.356316  -2.747018
C  -2.345436  -2.967098  -2.438062
C  0.157530  -0.556690  -3.587383
C  -1.079157  -1.073518  -3.246818
C  1.493892  1.296976  -3.034065
C  0.296730  0.812891  -3.531057
C  2.609922  2.943678  -1.670883
C  1.473112  2.491967  -2.340012
C  3.213246  3.779757  0.521598
C  2.519866  3.990259  -0.740298
C  1.999262  2.933676  2.403154
C  2.245989  4.032120  1.580959
C  0.345301  1.302145  3.021783
C  0.683737  2.628145  2.749771
C  -1.323365  -0.455374  3.059908
C  -0.996384  0.908234  3.055391
C  -2.996288  -2.209228  2.819955
C  -2.661772  -0.860336  2.969598
C  -3.929918  -2.453784  1.727358
C  -4.202762  -2.418268  -1.093672
C  -4.566923  -1.297568  -0.327796
C  -4.419935  -1.314733  1.064984
C  -3.525275  -2.111760  -2.345901
C  -2.209125  -0.259405  -3.251895
C  -3.382563  -0.746345  -2.666557
C  -0.780342  1.669223  -3.807023
C  -2.113630  1.062406  -3.722251
C  0.254560  3.149432  -2.196292
C  -0.819441  2.930567  -3.075239
C  1.188539  4.527302  -0.444192
C  0.087660  3.912364  -1.052482
C  1.102733  4.733675  0.999537
C  -0.297868  3.621949  2.712158
C  -0.149921  4.605301  1.642227
C  -2.008620  1.871225  2.947058
C  -1.700023  3.222917  2.744149
C  -3.697681  0.075648  2.882610
C  -3.353534  1.486109  2.893574
C  -4.667715  -0.157403  1.820836
C  -4.990895  -0.130809  -0.992010
C  -5.075019  1.124239  -0.248055
C  -4.918120  1.116125  1.150232
C  -4.382519  0.154603  -2.286117
C  -3.010007  2.041409  -3.108409
C  -4.119162  1.591304  -2.360149
C  -2.166778  3.086726  -2.532009
C  -1.177872  3.939585  -0.475817
C  -2.239295  3.317684  -1.149384
C  -1.339581  4.470932  0.805339
C  -2.372152  3.834526  1.609923
C  -4.062908  2.115481  1.791714
C  -3.280320  2.958834  0.990557
C  -4.359591  2.135564  -1.023480
C  -3.315128  2.830090  -0.401104
