100
# Created by libgraph from Fullerene (http://tinyurl.com/fullerenes)
C  4.751000  0.961750  1.555576
C  4.731718  1.964552  0.505822
C  5.138594  1.319965  -0.738882
C  5.450581  -0.081493  -0.438612
C  5.263637  -0.290457  0.999153
C  5.095982  -1.091818  -1.349197
C  4.612639  -2.385038  -0.854334
C  4.495034  -2.615203  0.539149
C  4.772586  -1.522227  1.476332
C  4.469211  1.659103  -1.928899
C  4.066622  0.598500  -2.860424
C  4.342897  -0.752678  -2.560641
C  3.584883  2.769918  0.534924
C  2.877401  3.037111  -0.639678
C  3.395921  2.659535  -1.894568
C  3.613575  0.929297  2.372461
C  3.035389  2.136641  2.801581
C  3.088520  3.178995  1.785443
C  3.697229  -1.497990  2.468997
C  2.994067  -0.290568  2.635195
C  3.341807  -3.354567  1.071692
C  2.907455  -2.715796  2.308669
C  3.531682  -2.817768  -1.738789
C  2.368534  -3.306171  -1.144477
C  2.305399  -3.642747  0.184136
C  3.293567  -1.761544  -2.720841
C  2.742170  0.943372  -3.372004
C  1.696332  0.015813  -3.194387
C  1.970137  -1.307889  -2.860019
C  2.440776  2.304592  -2.938435
C  1.577375  3.560754  -0.538264
C  0.704216  3.378106  -1.596192
C  1.108081  2.551371  -2.617592
C  1.835437  3.929017  1.832168
C  1.103681  4.108481  0.651144
C  1.674760  2.127315  3.334945
C  1.020517  3.357574  2.892971
C  1.629235  -0.277038  2.944878
C  0.965555  0.931124  3.177078
C  1.509206  -2.601640  2.395116
C  0.901081  -1.457108  2.859006
C  1.047813  -4.050641  0.626837
C  0.662448  -3.553741  1.846431
C  1.151897  -3.298762  -1.810100
C  0.165795  -4.271748  -1.593502
C  0.168839  -4.743579  -0.214225
C  0.896096  -2.139190  -2.503648
C  0.359407  0.441801  -3.193769
C  -0.699216  -0.433201  -3.028113
C  -0.427812  -1.743779  -2.664458
C  0.101992  1.788246  -3.143695
C  -0.613991  3.854349  -1.558633
C  -1.539337  3.464791  -2.552430
C  -1.147613  2.344981  -3.407946
C  -0.176528  4.694066  0.720145
C  -1.044141  4.603735  -0.456008
C  -0.359199  3.293261  2.617626
C  -0.964335  4.315701  1.881087
C  -0.431155  0.948755  3.100520
C  -1.102843  2.160216  2.944268
C  -0.483322  -1.475489  3.040024
C  -1.143219  -0.247049  3.030776
C  -0.582657  -3.847241  2.400145
C  -1.192311  -2.700585  3.071334
C  -1.223434  -4.883640  0.235540
C  -1.591505  -4.473039  1.539986
C  -1.216257  -3.930755  -1.922627
C  -2.077762  -4.521907  -0.900917
C  -1.472445  -2.598917  -2.293032
C  -2.006290  0.063038  -3.049378
C  -3.030988  -0.743954  -2.550166
C  -2.761109  -2.066522  -2.164146
C  -2.256390  1.392806  -3.444226
C  -2.910489  3.226747  -2.120258
C  -3.411037  2.052440  -2.837269
C  -2.395525  4.283597  0.006515
C  -3.136624  3.341991  -0.738029
C  -2.358345  4.162573  1.465138
C  -2.504468  2.209361  2.986882
C  -3.146040  3.180287  2.098711
C  -2.506970  -0.221248  2.783455
C  -3.251946  0.956111  2.884331
C  -2.589462  -2.636724  2.652242
C  -3.082936  -1.379798  2.281989
C  -2.856315  -3.762898  1.754428
C  -3.334764  -3.923726  -0.683820
C  -3.750890  -3.587228  0.678951
C  -3.763256  -2.813502  -1.537049
C  -4.295226  -0.187436  -2.328814
C  -5.065884  -0.762044  -1.232580
C  -4.788510  -2.081108  -0.811079
C  -4.402545  1.265672  -2.223445
C  -4.037471  2.472225  -0.101917
C  -4.802006  1.555069  -0.848203
C  -4.128934  2.452442  1.298947
C  -4.308049  1.136015  1.897298
C  -4.079316  -1.232891  1.324120
C  -4.543314  0.055678  1.025314
C  -4.517038  -2.340434  0.595567
C  -5.147554  0.283672  -0.215323
