100
# Created by libgraph from Fullerene (http://tinyurl.com/fullerenes)
C  4.346062  -2.363825  0.710320
C  4.366258  -2.365538  -0.746750
C  5.017084  -1.136237  -1.195191
C  5.409520  -0.380195  0.000999
C  5.004157  -1.144888  1.186796
C  5.321005  1.022446  0.005178
C  4.833244  1.723101  1.199500
C  4.410507  0.989183  2.333797
C  4.507412  -0.472927  2.329320
C  4.504278  -0.461273  -2.329692
C  4.420078  1.001786  -2.325062
C  4.826009  1.730506  -1.181190
C  3.125732  -2.694440  -1.306132
C  2.611233  -2.002613  -2.377274
C  3.301794  -0.969911  -3.006427
C  3.113208  -2.697757  1.279726
C  2.254496  -3.607224  0.674281
C  2.265413  -3.609046  -0.700271
C  3.317112  -1.002249  3.003723
C  2.606430  -2.017402  2.361923
C  3.156192  1.345141  3.011041
C  2.485523  0.119190  3.436068
C  4.031598  2.859775  0.749057
C  2.759886  3.034352  1.308033
C  2.344484  2.289876  2.388833
C  4.020166  2.858619  -0.706803
C  3.177460  1.380238  -3.006162
C  2.345561  2.305913  -2.374245
C  2.763851  3.040673  -1.287438
C  2.489770  0.165355  -3.437254
C  1.275373  -2.260078  -2.654885
C  0.484914  -1.151747  -2.894008
C  1.103853  0.073853  -3.156781
C  1.328395  -4.346122  -1.431906
C  0.751517  -3.556597  -2.514272
C  1.314994  -4.319118  1.428898
C  0.237673  -5.000479  0.701260
C  0.233507  -5.004037  -0.714271
C  1.275240  -2.285384  2.665756
C  0.727747  -3.570203  2.534932
C  1.097673  0.048457  3.148757
C  0.484156  -1.177510  2.891297
C  0.995931  2.392855  2.692703
C  0.340054  1.204726  2.950054
C  1.788178  3.837787  0.700861
C  0.759110  4.439407  1.432667
C  0.328409  3.618715  2.560135
C  1.784181  3.824075  -0.676992
C  0.998320  2.415767  -2.699860
C  0.307129  3.626724  -2.574788
C  0.755658  4.409619  -1.428400
C  0.342865  1.226982  -2.949104
C  -0.891289  -1.241167  -2.682441
C  -1.663843  -0.074881  -2.657125
C  -1.042639  1.165883  -2.814526
C  -0.701051  -3.662271  -2.423445
C  -1.453542  -2.477229  -2.341990
C  -1.003972  -4.706754  -1.441753
C  -1.008010  -4.726507  1.424747
C  -2.228323  -4.640473  0.726490
C  -2.221729  -4.646619  -0.738711
C  -0.722160  -3.690309  2.416792
C  -0.892611  -1.264153  2.681810
C  -1.462179  -2.497709  2.340861
C  -1.046666  1.148842  2.815980
C  -1.661788  -0.094477  2.657193
C  -1.128947  3.571964  2.564695
C  -1.780960  2.331970  2.678587
C  -0.436006  4.891180  0.714573
C  -1.599595  4.357061  1.429672
C  -0.426423  4.892924  -0.700033
C  -1.149989  3.588298  -2.535340
C  -1.606505  4.392560  -1.409078
C  -1.787737  2.343714  -2.672157
C  -3.020108  -0.145103  -2.327328
C  -3.837710  0.986937  -2.405439
C  -3.178221  2.282564  -2.515557
C  -2.742307  -2.498543  -1.803429
C  -3.520409  -1.335402  -1.796166
C  -3.204838  -3.650730  -1.159650
C  -3.220899  -3.640658  1.127321
C  -4.076015  -3.402820  -0.021127
C  -2.747875  -2.507462  1.792832
C  -3.015898  -0.154479  2.323834
C  -3.523748  -1.342155  1.794701
C  -3.170437  2.293969  2.495421
C  -3.818843  0.990762  2.408618
C  -2.666125  3.793977  0.705490
C  -3.676862  3.125657  1.415805
C  -2.662942  3.800477  -0.693526
C  -3.653954  3.109179  -1.416106
C  -4.912496  1.112884  -1.426447
C  -4.692609  2.365816  -0.700881
C  -4.752184  -1.347186  -1.135781
C  -5.302487  -0.050223  -0.734836
C  -4.861913  -2.230619  0.010321
C  -4.764274  -1.331988  1.150266
C  -4.900773  1.106190  1.431879
C  -5.309884  -0.043063  0.729425
C  -4.700628  2.361854  0.704803
