100
# Created by libgraph from Fullerene (http://tinyurl.com/fullerenes)
C  3.977930  -2.322789  1.226630
C  3.551377  -3.372999  0.310103
C  3.925562  -2.954889  -1.027755
C  4.823427  -1.802125  -0.907763
C  4.953339  -1.494407  0.518562
C  4.718647  -0.755400  -1.845328
C  4.915628  0.632702  -1.409917
C  5.172350  0.921502  -0.053522
C  5.152044  -0.162456  0.929766
C  2.822353  -2.890368  -1.890086
C  2.602675  -1.724458  -2.625571
C  3.620134  -0.771138  -2.814132
C  2.235691  -3.846395  0.443590
C  1.649910  -4.573255  -0.591732
C  1.880254  -3.946190  -1.882757
C  2.988558  -1.657796  1.962389
C  1.749489  -2.277513  2.168940
C  1.453992  -3.475110  1.530700
C  4.387074  0.321084  2.074602
C  3.195465  -0.339504  2.389570
C  4.542691  2.087814  0.580371
C  4.334005  1.776511  1.985625
C  3.953468  1.466844  -2.127104
C  3.169525  2.370729  -1.392351
C  3.487815  2.712738  -0.085433
C  3.218446  0.615102  -3.055742
C  1.302777  -1.452949  -3.052694
C  0.970313  -0.186028  -3.496898
C  1.837895  0.829430  -3.152205
C  0.571351  -3.691060  -2.480369
C  0.294303  -2.384251  -2.889612
C  0.232612  -4.922976  -0.486716
C  -0.449202  -4.295337  -1.620455
C  0.322213  -4.216392  1.890823
C  -0.375087  -4.882806  0.790437
C  0.755353  -1.637690  2.899480
C  -0.460475  -2.275469  3.179186
C  -0.688334  -3.587705  2.745180
C  2.162510  0.347364  3.034778
C  0.931542  -0.298675  3.209450
C  3.321449  2.486625  2.668852
C  2.320549  1.703982  3.385639
C  2.644970  3.604462  0.589849
C  2.593179  3.565409  1.989196
C  1.969665  2.857886  -1.909454
C  1.430902  4.079651  -1.497167
C  1.771564  4.449594  -0.128914
C  1.252314  2.009069  -2.728444
C  -0.261473  0.074290  -4.120617
C  -0.797344  1.415600  -3.882897
C  -0.092266  2.243420  -2.992981
C  -1.014488  -1.927182  -3.011985
C  -1.338381  -0.883761  -3.888866
C  -1.600381  -3.537192  -1.332179
C  -1.949034  -2.440368  -2.125466
C  -1.779519  -4.488597  0.878233
C  -2.352695  -3.794108  -0.187002
C  -2.000395  -3.863088  2.174705
C  -1.506866  -1.563662  3.791895
C  -2.836273  -1.829183  3.247999
C  -2.953808  -2.822698  2.254127
C  -0.178100  0.451271  3.538325
C  -1.378309  -0.118189  3.962071
C  1.091247  2.495806  3.434681
C  -0.097777  1.790498  3.240846
C  1.268729  3.671646  2.589652
C  0.521565  4.766999  0.549308
C  0.236887  4.012424  1.693584
C  -0.008745  4.292925  -1.683319
C  -0.531578  4.901182  -0.463731
C  -0.740169  3.237781  -2.256917
C  -2.232936  1.293044  -3.648694
C  -2.820268  2.053019  -2.619961
C  -2.106236  3.092015  -2.005511
C  -2.562078  -0.128899  -3.634926
C  -3.170725  -1.787072  -1.945112
C  -3.403770  -0.569686  -2.599139
C  -3.638803  -3.259200  -0.034817
C  -4.101952  -2.298605  -1.033159
C  -3.971865  -2.732073  1.282102
C  -3.486372  -0.541458  2.995709
C  -4.115284  -0.352475  1.752050
C  -4.650169  -1.454975  1.077615
C  -2.592820  0.514953  3.457805
C  -1.200367  2.335896  2.610446
C  -2.393416  1.616600  2.606362
C  -1.050913  3.495668  1.860842
C  -1.878628  4.634942  -0.126603
C  -2.141880  4.053401  1.183492
C  -2.737009  3.911842  -1.064635
C  -4.093122  1.694531  -2.144149
C  -4.542585  2.259702  -0.872465
C  -3.833206  3.335221  -0.298269
C  -4.426468  0.273412  -2.146387
C  -4.948148  -1.327910  -0.346966
C  -5.093234  -0.032450  -0.884039
C  -4.138727  0.911559  1.137124
C  -4.890645  1.125516  -0.020337
C  -3.324285  1.933048  1.626238
C  -3.349128  3.224251  1.074325
