100
# Created by libgraph from Fullerene (http://tinyurl.com/fullerenes)
C  1.656411  -3.984751  1.736864
C  2.316376  -4.066362  0.436214
C  3.564945  -3.317647  0.512216
C  3.612156  -2.685677  1.824932
C  2.537746  -3.245890  2.640244
C  3.799683  -1.301873  1.804428
C  3.040826  -0.480313  2.643593
C  2.325103  -1.024192  3.725036
C  1.974034  -2.443987  3.654551
C  3.906787  -2.542783  -0.617328
C  4.686990  -1.376148  -0.463921
C  4.675448  -0.755232  0.856956
C  1.535370  -3.882240  -0.712989
C  2.172462  -3.685444  -1.942686
C  3.391700  -2.886921  -1.885986
C  0.293899  -3.664444  1.771757
C  -0.486587  -3.765372  0.620104
C  0.140230  -3.794783  -0.624729
C  0.536242  -2.548430  3.899714
C  -0.278388  -3.141030  2.929009
C  1.149620  -0.297941  4.204738
C  0.047683  -1.249085  4.329361
C  2.911970  0.877273  2.321399
C  1.829008  1.588333  2.823340
C  0.874183  0.905697  3.555207
C  4.680996  0.693686  0.679482
C  3.774934  1.478173  1.405590
C  4.535198  -0.310230  -1.449187
C  4.631684  0.966258  -0.746884
C  3.241958  -1.795126  -2.842307
C  3.491614  -0.504246  -2.356583
C  1.384634  -3.220472  -3.080198
C  2.020922  -2.026219  -3.612439
C  -0.629567  -3.622324  -1.776390
C  -0.008270  -3.152172  -2.932092
C  -1.884563  -3.727635  0.709093
C  -2.680331  -3.839980  -0.438149
C  -2.015609  -3.818585  -1.738691
C  -1.672968  -3.082637  3.078886
C  -2.499706  -3.473358  1.940776
C  -1.210684  -0.866128  3.812825
C  -2.200346  -1.837027  3.612911
C  -0.417435  1.384094  3.482031
C  -1.426592  0.443425  3.374054
C  1.621367  2.930027  2.482836
C  0.422189  3.578399  2.831666
C  -0.654718  2.756817  3.377328
C  3.653504  2.842695  1.087977
C  2.554894  3.597667  1.682017
C  3.767381  2.007817  -1.125302
C  3.700927  3.155820  -0.330029
C  2.642622  0.559149  -2.678379
C  2.890569  1.850250  -2.197875
C  1.124347  -0.966785  -3.812364
C  1.462835  0.315739  -3.370304
C  -0.768214  -2.488821  -3.900327
C  -0.163069  -1.238916  -4.329172
C  -2.825857  -3.002042  -2.641366
C  -2.190557  -2.254257  -3.654621
C  -3.855229  -2.980349  -0.513740
C  -3.844507  -2.346133  -1.825958
C  -3.641938  -2.567637  1.885016
C  -4.123000  -2.178562  0.616134
C  -3.395200  -1.495426  2.842855
C  -2.581415  0.793294  2.681812
C  -3.523882  -0.187151  2.359888
C  -1.895355  3.134270  2.708018
C  -2.705611  2.102575  2.200581
C  -0.149069  4.460010  1.825223
C  -1.598560  4.266544  1.826222
C  1.959593  4.420362  0.633970
C  0.553834  4.499801  0.609068
C  2.688392  4.171648  -0.610776
C  2.176536  2.949231  -2.709170
C  1.983615  4.103730  -1.826457
C  0.542430  1.344105  -3.485336
C  0.905991  2.687155  -3.379113
C  -1.173098  -0.191969  -4.200709
C  -0.785064  0.979830  -3.547301
C  -2.410217  -0.808506  -3.724344
C  -3.904038  -0.951031  -1.804528
C  -3.073204  -0.202408  -2.643650
C  -4.792896  -0.944307  0.464431
C  -4.725262  -0.326604  -0.856274
C  -4.544064  0.103256  1.450022
C  -3.566907  2.338259  1.128064
C  -4.523171  1.383191  0.747871
C  -2.294174  4.397571  0.611182
C  -3.393693  3.476558  0.332015
C  -0.139946  4.531649  -0.608807
C  -1.546635  4.580151  -0.634157
C  0.557455  4.427861  -1.825090
C  -0.091949  3.602602  -2.832368
C  -1.679118  1.751051  -2.823416
C  -1.346277  3.066433  -2.484012
C  -2.820454  1.137269  -2.322200
C  -4.597399  1.116542  -0.678538
C  -3.623501  1.814319  -1.405016
C  -3.376364  3.161784  -1.086446
C  -2.214636  3.815217  -1.681803
