100
# Created by libgraph from Fullerene (http://tinyurl.com/fullerenes)
C  4.656148  -1.833261  0.127916
C  4.223431  -2.651975  -1.001848
C  4.097865  -1.746520  -2.141522
C  4.690735  -0.467167  -1.773705
C  5.188932  -0.582228  -0.406499
C  3.927928  0.654259  -2.130720
C  3.818426  1.730937  -1.241634
C  4.662282  1.825029  -0.131081
C  5.191585  0.572144  0.402389
C  2.872530  -1.688535  -2.819861
C  2.655828  -0.657812  -3.742747
C  3.196878  0.630875  -3.333583
C  3.234474  -3.630624  -0.775536
C  2.123652  -3.712363  -1.719184
C  1.846331  -2.580539  -2.497138
C  3.812316  -1.737887  1.239244
C  2.785075  -2.666547  1.413620
C  2.650711  -3.762207  0.555886
C  4.694293  0.457951  1.769786
C  3.928537  -0.661373  2.127038
C  4.231419  2.644215  0.999081
C  4.104717  1.738603  2.138502
C  2.791524  2.661146  -1.414841
C  2.659677  3.757419  -0.557466
C  3.244142  3.624804  0.773518
C  2.147376  1.630832  -3.503385
C  1.831951  2.423295  -2.395522
C  1.311187  -0.428257  -4.256103
C  1.033308  0.999004  -4.199401
C  0.531399  -2.270347  -2.870586
C  0.277149  -1.258423  -3.804631
C  1.002676  -4.338627  -1.024026
C  -0.301638  -3.882638  -1.262316
C  -0.536951  -2.885261  -2.213304
C  1.323353  -4.344204  0.393257
C  1.826409  -2.428492  2.396545
C  0.529484  -2.903433  2.193015
C  0.291867  -3.892836  1.233544
C  3.199414  -0.636982  3.330581
C  2.148427  -1.635529  3.502169
C  2.879728  1.683067  2.817722
C  2.661516  0.652617  3.740584
C  2.134114  3.708621  1.717928
C  1.855121  2.577179  2.495839
C  1.333501  4.342036  -0.393888
C  1.013842  4.337160  1.023602
C  0.535604  2.901846  -2.191901
C  0.300494  3.892369  -1.233174
C  -0.280214  1.287393  -3.795719
C  -0.533197  2.291540  -2.853233
C  -1.037441  -0.971678  -4.204662
C  -1.314614  0.456569  -4.251716
C  -1.834294  -2.409073  -2.412914
C  -2.151647  -1.608615  -3.513177
C  -1.334098  -4.337817  -0.421046
C  -2.660051  -3.751423  -0.578887
C  -2.790487  -2.649255  -1.429483
C  -1.014298  -4.342881  0.996828
C  -0.539202  -2.291552  2.855631
C  -1.853914  -2.596517  2.482473
C  -2.134514  -3.720296  1.696541
C  1.036304  -1.001305  4.198553
C  -0.278395  -1.287473  3.796159
C  1.316886  0.425557  4.254802
C  0.539861  2.269430  2.870050
C  0.284222  1.257771  3.803991
C  -0.291212  3.883592  1.262659
C  -0.527718  2.886532  2.213626
C  -1.004664  4.344980  -0.995956
C  -1.323485  4.340681  0.422121
C  -1.848522  2.599777  -2.480829
C  -2.126454  3.724181  -1.694817
C  -2.658961  0.682354  -3.736296
C  -2.874788  1.709563  -2.807866
C  -3.199867  -0.608973  -3.335376
C  -3.817927  -1.720435  -1.250168
C  -3.929026  -0.638643  -2.133022
C  -3.244375  -3.628738  0.752908
C  -4.231434  -2.650007  0.985414
C  -4.661766  -1.823440  -0.139425
C  -2.878430  -1.702627  2.808368
C  -4.104407  -1.752290  2.131103
C  -1.310571  -0.454132  4.252022
C  -2.656159  -0.677216  3.737598
C  -1.030641  0.973507  4.204665
C  -1.825773  2.412754  2.414004
C  -2.144057  1.612695  3.513944
C  -2.650419  3.756664  0.580904
C  -2.782224  2.654739  1.431619
C  -3.235849  3.634876  -0.750545
C  -4.100592  1.759932  -2.128280
C  -4.224923  2.658023  -0.982391
C  -4.692927  0.478359  -1.766998
C  -5.191549  -0.574585  0.402695
C  -5.189608  0.585028  -0.398690
C  -4.693786  -0.469464  1.770602
C  -3.194354  0.615204  3.336279
C  -3.925651  0.644817  2.133882
C  -3.811505  1.727858  1.252977
C  -4.656051  1.832714  0.142916
