100
# Created by libgraph from Fullerene (http://tinyurl.com/fullerenes)
C  4.941177  -0.923213  1.123732
C  4.848986  -1.820601  -0.012958
C  5.108547  -1.041825  -1.221685
C  5.401343  0.336414  -0.814811
C  5.339641  0.401496  0.647315
C  4.933898  1.412866  -1.588557
C  4.449948  2.630712  -0.929728
C  4.431724  2.715799  0.484267
C  4.837938  1.554993  1.282697
C  4.338122  -1.292318  -2.372628
C  3.819968  -0.167235  -3.159814
C  4.092904  1.159681  -2.763188
C  3.733508  -2.668716  0.048080
C  2.922069  -2.838935  -1.074068
C  3.300781  -2.326723  -2.333227
C  3.894733  -1.028934  2.047513
C  3.426375  -2.300503  2.417478
C  3.372100  -3.222333  1.292800
C  3.858011  1.381769  2.356042
C  3.241808  0.122638  2.478927
C  3.289931  3.334079  1.172476
C  2.989929  2.556226  2.368535
C  3.293227  3.109626  -1.684463
C  2.159339  3.487495  -0.963748
C  2.174483  3.656987  0.398654
C  3.015342  2.150749  -2.751520
C  2.460083  -0.509258  -3.577053
C  1.419031  0.371803  -3.232175
C  1.695475  1.679498  -2.843533
C  2.231819  -1.910778  -3.240296
C  1.651239  -3.404460  -0.903207
C  0.726556  -3.274663  -1.914898
C  0.955069  -2.244786  -2.790943
C  2.121704  -3.978719  1.392646
C  1.241556  -3.946040  0.307582
C  2.153018  -2.418456  3.122890
C  1.522304  -3.661233  2.686054
C  1.919045  -0.003248  2.918383
C  1.359438  -1.267594  3.149244
C  1.613057  2.346633  2.553015
C  1.117273  1.131012  2.969632
C  0.934221  3.936911  0.974909
C  0.669409  3.286475  2.156784
C  0.903735  3.527521  -1.551569
C  -0.089631  4.429481  -1.148238
C  -0.041374  4.675236  0.289036
C  0.630956  2.464523  -2.378663
C  0.095092  -0.080437  -3.120987
C  -0.970367  0.789496  -2.936028
C  -0.693751  2.094541  -2.569016
C  -0.131368  -1.429623  -2.989702
C  -0.457957  -4.017859  -1.943564
C  -1.586810  -3.318374  -2.567703
C  -1.416335  -1.949260  -2.847582
C  -0.101842  -4.327977  0.452878
C  -0.922956  -4.563785  -0.672611
C  0.122084  -3.781963  2.844694
C  -0.655181  -4.348915  1.739467
C  -0.030999  -1.380659  3.270995
C  -0.645382  -2.640412  3.343943
C  -0.243456  1.039410  3.250311
C  -0.812891  -0.224028  3.180536
C  -0.551681  3.433447  2.816325
C  -1.026082  2.197557  3.440598
C  -1.412424  4.631733  0.819283
C  -1.665133  4.035931  2.077977
C  -1.478880  4.126076  -1.490348
C  -2.301013  4.305841  -0.300426
C  -1.739286  2.950654  -2.215675
C  -2.284635  0.311177  -2.943491
C  -3.356907  1.206688  -2.911839
C  -3.068164  2.562049  -2.444099
C  -2.505424  -1.070298  -2.843206
C  -2.795453  -3.685401  -1.835753
C  -3.898331  -2.798511  -1.833830
C  -3.788597  -1.568705  -2.609298
C  -2.342371  -4.233667  -0.553852
C  -2.016605  -3.828085  1.828210
C  -2.695626  -3.554883  0.618887
C  -2.006417  -2.758817  2.820483
C  -2.152619  -0.328784  2.849491
C  -2.632875  -1.564111  2.452074
C  -2.451721  2.067860  3.146555
C  -2.956167  0.812411  2.768140
C  -2.820986  3.150916  2.240512
C  -3.299486  3.324375  -0.145976
C  -3.585252  2.789659  1.115996
C  -3.929723  2.814407  -1.298984
C  -4.590557  0.761558  -2.271766
C  -4.874315  1.700886  -1.183651
C  -4.779751  -0.624566  -2.086565
C  -4.489337  -2.400669  -0.564568
C  -5.186169  -1.126936  -0.773418
C  -3.652320  -2.529403  0.544369
C  -3.670428  -1.561234  1.538086
C  -4.230567  0.733389  2.178885
C  -4.618396  -0.533933  1.563050
C  -4.580041  1.807644  1.264388
C  -5.211740  1.209354  0.087639
C  -5.312215  -0.235817  0.312439
