100
# Created by libgraph from Fullerene (http://tinyurl.com/fullerenes)
C  4.598516  -0.457166  1.681763
C  4.386313  0.823870  2.347209
C  4.393082  1.840987  1.298148
C  4.844441  1.218934  0.059619
C  5.105019  -0.191835  0.334003
C  4.093953  1.567904  -1.073229
C  3.765557  0.581895  -2.016001
C  4.400049  -0.662948  -1.996642
C  4.876718  -1.127074  -0.698153
C  3.293956  2.703256  1.186606
C  3.193912  3.532047  0.060277
C  3.589214  2.881113  -1.181695
C  3.427324  0.884764  3.380621
C  2.424050  1.946617  3.330221
C  2.258775  2.651827  2.123216
C  3.607654  -1.431688  1.824720
C  2.808062  -1.464157  2.970583
C  2.735657  -0.337084  3.801380
C  4.103607  -2.322520  -0.382617
C  3.336672  -2.322236  0.787285
C  3.740704  -1.789960  -2.652710
C  3.422182  -2.755184  -1.602427
C  2.718546  0.814103  -2.908615
C  2.344615  -0.140778  -3.867235
C  2.784715  -1.519232  -3.654743
C  2.529961  3.111112  -2.157301
C  1.968543  1.976920  -2.747728
C  1.950095  4.255102  -0.196786
C  1.598136  4.087893  -1.597426
C  1.019467  3.218829  1.785323
C  0.889667  4.085691  0.700420
C  1.208059  1.440116  3.964149
C  -0.006566  1.746448  3.346660
C  -0.120654  2.792945  2.454043
C  1.407843  0.025496  4.274197
C  1.992145  -2.581329  3.232808
C  0.706921  -2.259573  3.836409
C  0.400583  -0.894603  3.921991
C  2.219170  -3.149177  0.897391
C  1.739144  -3.529101  2.153306
C  2.083805  -3.168996  -1.504158
C  1.531048  -3.492121  -0.263095
C  1.593852  -2.366993  -3.727597
C  1.255879  -3.159861  -2.625605
C  0.940058  -0.173533  -4.271309
C  0.482471  -1.559380  -4.206028
C  0.620032  1.931488  -3.079058
C  0.118491  0.790174  -3.681495
C  0.215330  3.914740  -1.798496
C  -0.252293  2.948070  -2.685158
C  -0.350118  4.683359  0.416372
C  -0.689326  4.625659  -0.996416
C  -1.391448  3.287070  2.137785
C  -1.538441  4.279276  1.162331
C  -1.107228  0.924796  3.492591
C  -2.403127  1.436352  3.431431
C  -2.537749  2.700049  2.708430
C  -0.861848  -0.433975  3.532313
C  -0.300531  -3.160273  3.277975
C  -1.538325  -2.647696  2.861607
C  -1.837490  -1.296107  3.044842
C  0.351521  -3.967658  2.257046
C  0.251600  -4.052843  -0.182005
C  -0.373093  -4.155289  1.066411
C  0.021209  -3.831624  -2.617261
C  -0.430304  -4.407876  -1.354062
C  -0.767806  -1.805775  -3.593447
C  -1.100301  -3.110537  -3.200780
C  -1.231518  0.559785  -3.527252
C  -1.612282  -0.742186  -3.253346
C  -1.603267  2.925769  -3.073121
C  -2.128592  1.630904  -3.506462
C  -2.122417  4.341791  -1.124764
C  -2.586708  3.533092  -2.180804
C  -2.637493  4.096194  0.221221
C  -3.663741  2.564974  1.793783
C  -3.453475  2.977043  0.465286
C  -3.457673  0.535016  2.976360
C  -4.313913  1.280045  2.054934
C  -3.062993  -0.765192  2.616004
C  -2.401185  -3.481676  2.134932
C  -3.585663  -2.880279  1.536041
C  -3.828205  -1.509189  1.719057
C  -1.762323  -4.330725  1.138141
C  -1.888779  -4.313400  -1.327199
C  -2.559914  -4.278391  -0.086065
C  -2.261949  -3.326131  -2.336414
C  -2.760259  -0.948087  -2.496193
C  -2.965217  -2.194261  -1.904307
C  -3.386240  1.392705  -2.810201
C  -3.613880  0.133046  -2.227372
C  -3.619495  2.528077  -1.924695
C  -3.979894  2.232706  -0.599518
C  -4.922746  0.582025  0.995644
C  -4.810077  1.125378  -0.356458
C  -4.763169  -0.869867  0.893803
C  -3.622881  -3.295647  0.141781
C  -3.792923  -2.260452  -0.785900
C  -4.706398  -1.232557  -0.512535
C  -4.636404  0.006771  -1.276587
