100
# Created by libgraph from Fullerene (http://tinyurl.com/fullerenes)
C  3.542622  -2.115988  2.500428
C  3.660888  -3.237307  1.580006
C  4.256526  -2.662703  0.379988
C  5.031380  -1.492590  0.789653
C  4.573280  -1.137499  2.134218
C  5.272607  -0.487685  -0.169257
C  5.182716  0.922262  0.214185
C  4.746499  1.272341  1.507286
C  4.398089  0.219707  2.469722
C  3.397967  -2.530406  -0.714811
C  3.570649  -1.463828  -1.608308
C  4.670014  -0.609668  -1.494575
C  2.550728  -4.106578  1.459779
C  2.096716  -4.402443  0.109985
C  2.301741  -3.396972  -0.836060
C  2.254384  -1.631274  2.744283
C  1.153963  -2.486790  2.598668
C  1.327419  -3.823487  2.202774
C  3.143421  0.608214  3.109575
C  2.050893  -0.272216  3.009157
C  3.774538  2.354979  1.669780
C  2.882984  2.002398  2.767328
C  4.656465  1.660571  -0.939848
C  3.567621  2.522305  -0.758858
C  3.157986  2.878483  0.521918
C  4.566718  0.731096  -2.061084
C  2.572623  -1.192422  -2.544363
C  2.670808  -0.102750  -3.427222
C  3.611323  0.961715  -3.074908
C  1.346885  -3.167356  -1.822742
C  1.406067  -1.953219  -2.493864
C  0.739366  -4.947577  0.207207
C  -0.131281  -4.891252  -0.910026
C  0.289197  -4.067085  -2.038647
C  0.219191  -4.470633  1.484576
C  -0.138843  -1.967228  2.712574
C  -1.224078  -2.732570  2.348766
C  -0.983451  -3.756044  1.452935
C  0.736497  0.216671  3.042445
C  -0.349602  -0.639942  3.029403
C  1.552887  2.369382  2.534293
C  0.505401  1.569240  2.909944
C  2.008419  3.661945  0.643196
C  1.226288  3.460684  1.759351
C  2.799492  2.951149  -1.853447
C  1.888667  4.026999  -1.737669
C  1.589109  4.495019  -0.389997
C  2.850492  2.213136  -3.044524
C  1.422156  0.525569  -3.863452
C  1.542940  1.967041  -3.638371
C  0.239153  -1.413542  -2.985584
C  0.255740  -0.098640  -3.406758
C  -0.920471  -3.513466  -2.662052
C  -0.950067  -2.130913  -2.893612
C  -1.559933  -4.609809  -0.722024
C  -2.078886  -4.077686  -1.972377
C  -1.911164  -3.916295  0.433607
C  -2.518656  -2.385710  2.748238
C  -3.544579  -2.665437  1.748974
C  -3.140651  -3.249320  0.530893
C  -1.654703  -0.145985  3.168071
C  -2.741606  -1.029014  3.249285
C  -0.783102  2.105777  2.961140
C  -1.871124  1.236677  3.088103
C  0.074425  4.208400  2.007011
C  -0.971353  3.485204  2.742905
C  0.187214  4.936288  -0.348710
C  -0.550665  4.869631  0.864628
C  0.616922  3.881200  -2.432521
C  -0.442699  4.398381  -1.551466
C  0.448728  2.619411  -3.028550
C  -0.897059  0.619867  -3.171849
C  -0.775023  1.961153  -2.886770
C  -2.156626  -1.421175  -2.908958
C  -2.129565  -0.028305  -3.055745
C  -3.286976  -3.340390  -1.914687
C  -3.356554  -2.086599  -2.655434
C  -3.919207  -3.068622  -0.620808
C  -4.391167  -1.479533  1.647253
C  -4.613388  -0.947767  0.366344
C  -4.668364  -1.817181  -0.736635
C  -4.026147  -0.570105  2.733518
C  -3.169085  1.746335  3.007175
C  -4.215091  0.817694  2.578043
C  -2.256491  3.874699  2.172519
C  -3.358223  2.992863  2.274300
C  -1.949010  4.419671  0.856194
C  -1.573210  3.586369  -1.377309
C  -2.368480  3.667908  -0.240714
C  -1.853507  2.577052  -2.282269
C  -3.310670  0.717869  -2.953492
C  -3.155155  2.090691  -2.469615
C  -4.434263  -1.285181  -2.075572
C  -4.435202  0.114897  -2.246956
C  -4.705448  0.441660  0.183552
C  -4.730874  0.986710  -1.110536
C  -4.699115  1.307453  1.291083
C  -4.119229  2.632783  1.077268
C  -3.528250  2.881368  -0.168347
C  -4.040516  2.257276  -1.322142
