100
# Created by libgraph from Fullerene (http://tinyurl.com/fullerenes)
C  2.877802  -2.674735  2.580340
C  3.881970  -1.728253  2.110558
C  4.319285  -2.167860  0.798085
C  3.687268  -3.457134  0.507393
C  2.842081  -3.808201  1.651925
C  3.243360  -3.715592  -0.803756
C  1.989708  -4.446704  -1.018454
C  1.199147  -4.841767  0.084275
C  1.629886  -4.503948  1.444175
C  4.272403  -1.140776  -0.151892
C  3.635032  -1.353059  -1.373834
C  3.324383  -2.654081  -1.811145
C  3.596932  -0.349179  2.224709
C  4.410552  0.572480  1.551582
C  4.750119  0.133563  0.206509
C  1.655763  -2.140337  2.979317
C  1.568004  -0.835371  3.436819
C  2.439062  0.088978  2.880537
C  0.442714  -4.081733  2.191406
C  0.471995  -2.831350  2.815312
C  -0.259420  -4.678096  0.033800
C  -0.733240  -4.315800  1.363055
C  1.329510  -3.860395  -2.185251
C  -0.019486  -3.502988  -2.076189
C  -0.796052  -3.932321  -1.018594
C  2.192868  -2.814587  -2.720740
C  3.197021  -0.239658  -2.101398
C  2.257636  -0.419555  -3.104558
C  1.576607  -1.621828  -3.122311
C  4.495907  1.247610  -0.702845
C  3.588435  1.050922  -1.749998
C  3.994780  1.971635  1.466302
C  4.294965  2.440937  0.115687
C  2.062583  1.430589  2.852313
C  2.747654  2.309103  2.008208
C  0.539186  -0.465643  4.315080
C  0.223601  0.956437  4.390741
C  0.927646  1.850372  3.566838
C  -0.701035  -2.165156  3.171471
C  -0.712979  -1.204100  4.188682
C  -1.739917  -3.328032  1.370273
C  -1.808273  -2.369087  2.368450
C  -2.100117  -3.440095  -0.958266
C  -2.608635  -3.177100  0.298573
C  -0.598349  -2.580186  -2.947658
C  -1.972684  -2.578831  -3.218764
C  -2.792040  -3.088462  -2.123372
C  0.217964  -1.558853  -3.394372
C  1.912867  0.616260  -3.979029
C  0.523197  0.604884  -4.447361
C  -0.323219  -0.409137  -3.964392
C  2.975146  2.141399  -2.380857
C  2.241227  1.976809  -3.573640
C  3.533492  3.512268  -0.398895
C  2.990117  3.394256  -1.752401
C  2.109807  3.483177  1.613038
C  2.487830  4.122545  0.424989
C  0.415513  3.140491  3.383395
C  1.004675  3.963395  2.331434
C  -1.233458  1.092762  4.384289
C  -1.803582  2.136749  3.627514
C  -1.035363  3.274580  3.302284
C  -1.809649  -0.239366  4.209605
C  -2.916596  -1.524414  2.446549
C  -2.830737  -0.381637  3.251872
C  -3.886434  -2.642940  0.468907
C  -4.042360  -1.764839  1.634237
C  -3.958321  -2.213438  -1.968532
C  -4.507560  -1.989230  -0.681524
C  -2.572911  -1.329923  -3.679853
C  -3.735305  -1.057551  -2.841028
C  -1.712292  -0.242083  -3.930647
C  0.016609  1.975019  -4.383867
C  -1.339298  2.195197  -4.059537
C  -2.245692  1.047382  -4.022585
C  1.033219  2.777734  -3.706178
C  1.707471  4.085110  -1.791421
C  0.693251  3.461767  -2.536288
C  1.389947  4.526760  -0.440272
C  -0.079088  4.411826  1.472696
C  0.130562  4.230821  0.096579
C  -1.339150  3.964458  2.054696
C  -3.114652  2.008617  3.118145
C  -3.367886  2.681229  1.851597
C  -2.265513  3.303899  1.246354
C  -3.709903  0.679347  3.024885
C  -4.794143  -0.591356  1.200958
C  -4.565409  0.646921  1.838613
C  -4.810681  -0.624446  -0.260972
C  -3.761914  0.230258  -2.285898
C  -4.156340  0.398455  -0.952184
C  -3.288345  1.321950  -3.044393
C  -1.673295  3.044756  -2.915324
C  -2.895348  2.518929  -2.310488
C  -0.621762  3.419342  -2.064998
C  -0.855515  3.645727  -0.704822
C  -2.033180  3.171192  -0.128284
C  -4.200985  1.806577  1.031143
C  -3.792716  1.565467  -0.283362
C  -2.927935  2.450271  -0.913767
