100
# Created by libgraph from Fullerene (http://tinyurl.com/fullerenes)
C  4.379279  -0.582886  1.919596
C  4.383530  0.872275  1.793616
C  5.129755  1.224617  0.591483
C  5.438100  -0.021241  -0.112800
C  5.114648  -1.133818  0.782779
C  5.171162  -0.126992  -1.488157
C  4.589705  -1.365706  -2.020608
C  4.405143  -2.491412  -1.178680
C  4.722509  -2.378237  0.247338
C  4.727426  2.370894  -0.126466
C  4.416051  2.251549  -1.552065
C  4.575310  1.007581  -2.204858
C  3.178276  1.545246  2.022604
C  2.994040  2.842569  1.555085
C  3.736040  3.284283  0.454519
C  3.180676  -1.219428  2.263853
C  2.105887  -0.488110  2.762755
C  2.096376  0.898812  2.614289
C  3.744670  -3.181318  0.987453
C  2.998122  -2.574990  2.003695
C  3.181203  -3.302451  -1.283451
C  2.894613  -3.870747  0.035107
C  3.509633  -0.983392  -2.925166
C  2.261825  -1.583803  -2.724947
C  2.107648  -2.718184  -1.950469
C  3.482950  0.478946  -3.018815
C  3.194039  3.027455  -1.793555
C  2.076527  2.342461  -2.280769
C  2.232972  1.097033  -2.882327
C  2.946233  3.856893  -0.620514
C  1.975143  3.652639  2.089797
C  1.313418  4.461114  1.079807
C  1.615108  4.097854  -0.237238
C  0.945148  1.621151  2.935226
C  0.923239  3.023417  2.881388
C  0.994855  -1.158941  3.287698
C  -0.181505  -0.445552  3.522981
C  -0.225442  0.907491  3.179874
C  1.975181  -3.304558  2.639166
C  1.032676  -2.548968  3.459628
C  1.535697  -3.979746  0.419644
C  1.193001  -4.168469  1.769085
C  0.799182  -3.130158  -1.701177
C  0.518688  -3.728640  -0.499167
C  1.092781  -0.966718  -3.147097
C  -0.107473  -1.639947  -3.299693
C  -0.261392  -2.782598  -2.540962
C  1.076140  0.393091  -3.185564
C  0.771561  2.815643  -2.045817
C  -0.330122  2.176143  -2.610172
C  -0.148538  1.012695  -3.333210
C  0.565828  3.816175  -1.105063
C  -0.099038  4.610644  1.447637
C  -1.085416  4.730112  0.437183
C  -0.689762  4.417097  -0.933582
C  -0.348113  3.664077  2.535487
C  -1.447559  1.526377  2.947061
C  -1.459761  2.817271  2.418129
C  -1.323738  -1.109563  3.983882
C  -2.609195  -0.479529  3.684940
C  -2.631130  0.803832  3.114099
C  -0.252845  -3.244013  3.400736
C  -1.443866  -2.532877  3.682847
C  -0.214721  -4.042570  2.178802
C  -0.820841  -3.858039  -0.163951
C  -1.137348  -3.709337  1.178245
C  -1.489800  -3.445241  -2.487364
C  -1.812318  -3.965159  -1.160022
C  -1.151268  -1.064603  -4.035935
C  -2.500243  -1.586532  -3.794344
C  -2.672002  -2.755155  -3.013994
C  -1.211577  0.398932  -4.023276
C  -1.616440  2.586664  -2.300211
C  -2.656929  1.695511  -2.574647
C  -2.565252  0.780182  -3.635662
C  -1.833041  3.785078  -1.606812
C  -2.409055  4.134014  0.634347
C  -2.940497  3.734325  -0.659555
C  -2.560093  3.189412  1.651633
C  -3.836394  1.293425  2.586883
C  -3.785574  2.524886  1.804497
C  -3.403638  -1.447934  2.943266
C  -4.077894  -0.955108  1.808310
C  -4.647854  0.324550  1.863765
C  -2.596424  -2.650665  2.787298
C  -2.334487  -3.071432  1.483938
C  -3.116161  -3.425821  -0.788442
C  -3.205516  -2.746846  0.438564
C  -3.702681  -2.795083  -1.973082
C  -3.383607  -0.433154  -3.584017
C  -4.419281  -0.500915  -2.631331
C  -4.576357  -1.703529  -1.810951
C  -3.722362  1.655238  -1.679888
C  -4.689819  0.651567  -1.766640
C  -3.738342  2.569207  -0.620803
C  -4.463040  2.262952  0.542498
C  -5.120654  0.954900  0.632732
C  -4.089711  -1.675348  0.603897
C  -4.905999  -1.264703  -0.455895
C  -5.249878  0.151888  -0.519931
