100
# Created by libgraph from Fullerene (http://tinyurl.com/fullerenes)
C  4.650070  -1.389281  1.228689
C  5.264031  -0.726737  0.092634
C  4.721565  -1.429429  -1.061394
C  4.406801  -2.794261  -0.628505
C  4.388571  -2.772038  0.835223
C  3.422239  -3.514688  -1.335551
C  2.495147  -4.388901  -0.606383
C  2.516537  -4.412966  0.803585
C  3.411322  -3.509369  1.527553
C  3.752571  -0.725893  -1.783623
C  2.710581  -1.427122  -2.397838
C  2.655720  -2.832334  -2.376363
C  5.268767  0.684621  0.116948
C  4.734283  1.367273  -1.048415
C  3.760394  0.681813  -1.781098
C  3.614271  -0.702421  1.867783
C  3.622456  0.690798  1.869931
C  4.663679  1.378695  1.242447
C  2.598280  -2.792940  2.508200
C  2.529047  -1.400323  2.396853
C  1.259195  -4.446730  1.552432
C  1.345969  -3.512126  2.659836
C  1.196995  -4.338824  -1.286965
C  0.036309  -4.146071  -0.512569
C  0.049764  -4.381098  0.857132
C  1.335247  -3.462009  -2.444338
C  1.638846  -0.704628  -2.918431
C  0.473638  -1.354648  -3.274402
C  0.273362  -2.588145  -2.699116
C  2.726861  1.392247  -2.402338
C  1.650569  0.673801  -2.924453
C  4.432203  2.746120  -0.642342
C  3.461225  3.487754  -1.345072
C  2.704251  2.799824  -2.385032
C  4.418467  2.753245  0.821921
C  2.539019  1.394302  2.396320
C  2.603979  2.786780  2.502208
C  3.437716  3.481245  1.519583
C  1.353519  -0.699361  2.708530
C  1.360830  0.702346  2.706706
C  0.150089  -2.796048  2.821981
C  0.154246  -1.397272  2.893742
C  -1.150925  -4.385967  1.583288
C  -1.053063  -3.511451  2.738937
C  -1.122068  -3.582277  -1.065926
C  -2.350171  -3.635857  -0.408652
C  -2.412210  -4.068303  0.917308
C  -0.998009  -2.817992  -2.211941
C  -0.521261  -0.725743  -4.037829
C  -1.889272  -1.182971  -3.773795
C  -2.091979  -2.153935  -2.775537
C  0.490001  1.334779  -3.291422
C  -0.529375  0.734464  -4.041768
C  1.381941  3.418147  -2.461614
C  0.301896  2.559504  -2.700849
C  2.528213  4.361737  -0.622514
C  1.230863  4.298272  -1.307939
C  2.567879  4.401346  0.785662
C  1.361493  3.529929  2.615224
C  1.309454  4.485611  1.523443
C  0.166191  1.411782  2.890223
C  0.172621  2.811417  2.811320
C  -1.053185  -0.690552  3.012453
C  -1.045384  0.713081  3.009321
C  -2.302106  -2.778793  2.869976
C  -2.269857  -1.389144  2.997727
C  -3.200600  -3.242273  1.819560
C  -3.505001  -3.133861  -1.027093
C  -4.406990  -2.404569  -0.139656
C  -4.043335  -2.283457  1.215946
C  -3.379118  -2.364036  -2.265339
C  -2.750621  -0.005637  -3.682623
C  -3.760424  0.011236  -2.695426
C  -4.251529  -1.199668  -2.170565
C  -1.899656  1.176691  -3.772225
C  -0.972085  2.810747  -2.224284
C  -2.077281  2.161503  -2.782693
C  0.072649  4.133413  -0.525951
C  -1.085434  3.575636  -1.077070
C  0.093061  4.388959  0.840791
C  -1.035795  3.517562  2.765083
C  -1.092100  4.374501  1.594777
C  -2.261896  1.413347  2.988245
C  -2.297058  2.799450  2.838869
C  -3.493076  -0.715723  2.969735
C  -3.481153  0.734937  2.987442
C  -4.442250  -1.156634  1.957181
C  -4.853325  -1.199566  -0.839732
C  -4.891096  0.020722  -0.145351
C  -4.921664  0.031413  1.257105
C  -4.227095  1.238497  -2.182662
C  -4.840423  1.230911  -0.856045
C  -3.354290  2.406058  -2.265085
C  -2.313254  3.652715  -0.417460
C  -3.481245  3.153961  -1.013600
C  -2.352006  4.111578  0.901925
C  -3.173429  3.294001  1.785119
C  -4.410205  1.202147  1.966106
C  -4.021650  2.323374  1.207652
C  -4.400942  2.429779  -0.143782
