100
# Created by libgraph from Fullerene (http://tinyurl.com/fullerenes)
C  2.462350  -3.281159  2.480822
C  3.632622  -3.123191  1.632785
C  3.225497  -3.641610  0.334043
C  2.137430  -4.593406  0.560474
C  1.668749  -4.384018  1.931541
C  1.213179  -4.814415  -0.478929
C  -0.207120  -4.997213  -0.163719
C  -0.664053  -4.822970  1.161240
C  0.290085  -4.460016  2.214942
C  3.080145  -2.688311  -0.678944
C  2.088710  -2.842494  -1.648064
C  1.296674  -4.000347  -1.692682
C  4.330687  -1.896756  1.698657
C  4.695436  -1.278141  0.433757
C  3.858729  -1.524334  -0.658981
C  1.774899  -2.119251  2.836584
C  2.442122  -0.885895  2.833426
C  3.803667  -0.804981  2.513149
C  -0.306822  -3.376405  2.992653
C  0.397998  -2.164216  3.078152
C  -1.899573  -4.071725  1.413894
C  -1.714499  -3.275289  2.620061
C  -0.982969  -4.417891  -1.263230
C  -2.040785  -3.550736  -0.957794
C  -2.494975  -3.402465  0.338737
C  -0.048524  -3.883267  -2.244919
C  1.821550  -1.771451  -2.505947
C  0.585135  -1.701850  -3.133102
C  -0.380583  -2.641371  -2.805124
C  3.722726  -0.562485  -1.668107
C  2.728144  -0.719000  -2.635089
C  5.014853  0.119100  0.709745
C  4.991005  1.057785  -0.346038
C  4.510205  0.594542  -1.643500
C  4.297946  0.452270  1.937357
C  1.702796  0.283875  3.024657
C  2.206716  1.502496  2.609474
C  3.391212  1.519820  1.878623
C  -0.283699  -0.959331  3.281261
C  0.401079  0.220100  3.490008
C  -2.270671  -1.987735  2.537461
C  -1.649196  -0.901271  3.108573
C  -3.457354  -2.415387  0.554954
C  -3.368778  -1.716905  1.741173
C  -2.575415  -2.690689  -1.923813
C  -3.874375  -2.177582  -1.820859
C  -4.360097  -2.049122  -0.449041
C  -1.704789  -2.234334  -2.897620
C  0.271345  -0.617989  -3.959025
C  -1.060435  -0.382220  -4.349918
C  -2.092290  -1.291939  -3.851619
C  2.579089  0.230249  -3.653351
C  1.260059  0.328598  -4.274420
C  4.021608  1.759184  -2.385757
C  3.042853  1.586940  -3.387084
C  4.393272  2.377674  -0.143425
C  3.824367  2.824340  -1.407109
C  3.575372  2.562132  0.975754
C  1.444360  2.661340  2.803401
C  1.763055  3.825349  2.099193
C  2.834884  3.746962  1.107277
C  -0.254227  1.340720  4.013888
C  0.289272  2.633843  3.606113
C  -2.360431  0.281307  3.337931
C  -1.711664  1.401546  3.883893
C  -4.248494  -0.679018  2.047762
C  -3.691350  0.385785  2.893244
C  -4.998731  -0.737563  -0.307958
C  -4.963304  -0.057010  0.936203
C  -4.173049  -0.930251  -2.522184
C  -4.638923  0.017135  -1.504489
C  -3.276724  -0.492984  -3.528912
C  -1.523144  0.977673  -4.138758
C  -2.830089  0.897101  -3.486245
C  0.793329  1.690339  -4.069283
C  -0.522920  1.799231  -3.588233
C  1.849838  2.432983  -3.385657
C  2.553498  3.404988  -1.275885
C  1.540835  3.079370  -2.182576
C  2.286989  4.212968  -0.157503
C  0.645693  4.543595  1.503997
C  0.911109  4.641427  0.074152
C  -0.822420  3.451871  3.123207
C  -0.645578  4.145418  1.910694
C  -2.062627  2.697625  3.316438
C  -4.010721  1.661656  2.267430
C  -3.030285  2.679048  2.293163
C  -4.627044  1.368385  0.977789
C  -3.904194  1.193718  -1.326823
C  -4.029561  1.938595  -0.149350
C  -2.967434  1.589559  -2.279503
C  -0.809660  2.611108  -2.485004
C  -2.099686  2.632321  -1.963392
C  0.206577  3.304949  -1.825671
C  -0.106352  4.132107  -0.737979
C  -1.739311  4.374315  1.057047
C  -1.439047  4.373681  -0.370426
C  -2.978449  3.623481  1.252538
C  -3.474295  3.224830  -0.061878
C  -2.483038  3.622556  -1.054402
