100
# Created by libgraph from Fullerene (http://tinyurl.com/fullerenes)
C  4.565026  -1.170332  1.724893
C  5.109637  -0.720413  0.449866
C  5.100446  0.739141  0.461387
C  4.567609  1.172453  1.748767
C  4.381843  -0.005917  2.590122
C  3.540355  2.116691  1.668361
C  2.405957  1.980839  2.471463
C  2.447753  1.165616  3.606814
C  3.333288  0.006554  3.533594
C  4.643991  1.408675  -0.688814
C  4.196704  2.743389  -0.584657
C  3.623294  3.122878  0.700476
C  4.644632  -1.403912  -0.688350
C  4.542486  -0.736611  -1.924017
C  4.555143  0.726903  -1.917850
C  3.542129  -2.122176  1.661617
C  3.617629  -3.143949  0.713109
C  4.199828  -2.738507  -0.560447
C  2.469605  -1.166942  3.599641
C  2.411887  -1.983466  2.465755
C  1.190414  0.702976  4.177679
C  1.205770  -0.748736  4.189931
C  1.206061  2.578907  2.067132
C  -0.004581  2.171282  2.640935
C  -0.004146  1.254188  3.697110
C  2.425577  3.917202  0.444636
C  1.212455  3.495376  1.010098
C  3.307086  3.264033  -1.612473
C  2.407957  4.226411  -0.981903
C  3.518044  1.185161  -2.837818
C  2.750291  2.289884  -2.438719
C  3.503774  -1.172412  -2.854717
C  2.792023  0.014114  -3.316348
C  3.319665  -3.237872  -1.604626
C  2.750335  -2.277458  -2.441540
C  2.420857  -3.930951  0.426253
C  2.418812  -4.220847  -1.002141
C  1.212341  -2.584779  2.061562
C  1.215925  -3.502683  1.002290
C  0.000637  -1.265433  3.694150
C  0.001317  -2.177798  2.634961
C  -1.211903  0.742387  4.189237
C  -1.195538  -0.709712  4.174704
C  -1.216544  2.579563  2.066850
C  -2.416137  1.981082  2.469949
C  -2.475678  1.162118  3.600173
C  -0.000424  3.908080  0.448205
C  -1.215157  3.498359  1.008342
C  1.170710  4.481765  -1.608969
C  0.012319  4.637744  -0.744991
C  1.394504  2.379607  -2.760912
C  0.725354  3.606836  -2.688977
C  1.397768  0.005933  -3.163097
C  0.698557  1.204725  -3.026612
C  1.395915  -2.370703  -2.755794
C  0.700084  -1.195461  -3.025706
C  1.167012  -4.489055  -1.595672
C  0.744194  -3.606254  -2.673653
C  0.000230  -3.910339  0.440579
C  -0.010363  -4.638292  -0.752142
C  -1.210214  -2.582855  2.060412
C  -1.211884  -3.498428  1.003004
C  -2.452636  -1.170273  3.601588
C  -2.408538  -1.983805  2.464466
C  -3.338586  -0.011437  3.530527
C  -3.545076  2.118129  1.662644
C  -4.568918  1.167903  1.722560
C  -4.386399  0.002519  2.586667
C  -2.419132  3.928447  0.429957
C  -3.616899  3.141878  0.714585
C  -1.164321  4.491326  -1.590207
C  -2.416554  4.221226  -0.997883
C  -0.740842  3.612784  -2.671519
C  -0.697054  1.204953  -3.026858
C  -1.393983  2.379352  -2.757480
C  -0.694734  -1.195369  -3.027349
C  -1.394179  0.002908  -3.165362
C  -0.721818  -3.600164  -2.691766
C  -1.389757  -2.371061  -2.761584
C  -1.168200  -4.479256  -1.615967
C  -2.425757  -3.918421  0.438095
C  -2.405981  -4.225387  -0.989300
C  -3.543625  -2.118604  1.660703
C  -3.623802  -3.124120  0.693041
C  -4.570724  -1.174746  1.744100
C  -5.111387  0.719143  0.446372
C  -5.101809  -0.740325  0.456223
C  -4.198278  2.738443  -0.560030
C  -4.643351  1.404079  -0.688879
C  -3.318191  3.239715  -1.602687
C  -2.747197  2.282023  -2.439472
C  -2.788395  -0.010002  -3.319131
C  -3.499776  1.175942  -2.855588
C  -2.747339  -2.285648  -2.445866
C  -3.515250  -1.181693  -2.842408
C  -3.303698  -3.261969  -1.619917
C  -4.195269  -2.743214  -0.592328
C  -4.643094  -1.408291  -0.694497
C  -4.539489  0.738986  -1.926257
C  -4.552624  -0.724552  -1.922303
