100
# Created by libgraph from Fullerene (http://tinyurl.com/fullerenes)
C  4.608840  0.246239  2.187457
C  4.784560  1.439852  1.377022
C  5.417448  1.045954  0.123208
C  5.575809  -0.410556  0.139021
C  5.142033  -0.899298  1.449814
C  5.299151  -1.156658  -1.018726
C  4.622674  -2.452319  -0.905846
C  4.278633  -2.970089  0.368206
C  4.522235  -2.158675  1.566070
C  5.038539  1.706885  -1.057996
C  4.726513  0.925384  -2.254838
C  4.797725  -0.480945  -2.219723
C  3.680935  2.306290  1.360484
C  3.273356  2.901428  0.155736
C  4.070280  2.802383  -0.991730
C  3.379349  0.128996  2.847664
C  2.778754  1.285096  3.382366
C  2.940642  2.473107  2.547923
C  3.354897  -2.280786  2.440704
C  2.711638  -1.098281  2.863137
C  2.992978  -3.656904  0.564465
C  2.489392  -3.323311  1.892173
C  3.643830  -2.527456  -1.988029
C  2.359637  -2.955711  -1.662960
C  2.059175  -3.551142  -0.463666
C  3.675795  -1.265529  -2.726895
C  3.563197  1.552147  -2.879883
C  2.392938  0.796666  -3.010909
C  2.451439  -0.598526  -2.920983
C  3.415320  2.878168  -2.290761
C  2.015392  3.512036  0.070127
C  1.570545  4.073309  -1.143171
C  2.171246  3.535684  -2.363926
C  1.651082  3.150839  2.460305
C  1.159620  3.445872  1.173749
C  1.382712  1.240385  3.821907
C  0.720704  2.454398  3.352268
C  1.347934  -1.104472  3.181288
C  0.696214  0.043608  3.594680
C  1.105921  -3.075755  1.954776
C  0.585878  -2.226293  2.899348
C  0.705847  -3.815074  -0.264631
C  0.214521  -3.507154  0.986062
C  1.270037  -2.630793  -2.451520
C  0.161030  -3.474666  -2.587819
C  -0.127512  -4.172811  -1.338596
C  1.255275  -1.325103  -2.880592
C  1.148911  1.440369  -3.106777
C  -0.025674  0.669251  -3.092996
C  0.029835  -0.716532  -3.083187
C  1.096216  2.846736  -3.070248
C  0.127026  4.163130  -1.386895
C  -0.162516  3.435526  -2.619844
C  -0.214871  3.535271  0.940968
C  -0.708365  3.831177  -0.311384
C  -0.583581  2.266987  2.863310
C  -1.104482  3.113312  1.915869
C  -0.696942  0.002151  3.583202
C  -1.346887  1.147646  3.156900
C  -0.721685  -2.416975  3.379555
C  -1.382602  -1.194903  3.830023
C  -1.159896  -3.429426  1.213139
C  -1.652741  -3.122542  2.493551
C  -1.571103  -4.082362  -1.098386
C  -2.014002  -3.506056  0.108644
C  -1.097881  -2.885968  -3.042113
C  -2.173515  -3.563183  -2.326010
C  -1.151418  -1.481942  -3.093099
C  -1.255166  1.277401  -2.902110
C  -2.451780  0.558499  -2.931626
C  -2.394243  -0.835601  -3.006587
C  -1.263543  2.578745  -2.467007
C  -2.055154  3.531575  -0.501968
C  -2.353117  2.921943  -1.693126
C  -2.491077  3.348016  1.860102
C  -2.991094  3.660787  0.526445
C  -2.712077  1.133834  2.850998
C  -3.356491  2.308702  2.418042
C  -2.778591  -1.246049  3.394109
C  -3.379396  -0.094066  2.849310
C  -2.941321  -2.443246  2.573545
C  -3.273315  -2.896732  0.187224
C  -3.680717  -2.288279  1.385558
C  -3.417979  -2.903932  -2.260735
C  -4.070970  -2.812299  -0.961819
C  -3.567149  -1.584472  -2.865859
C  -3.675230  1.235192  -2.740265
C  -4.798062  0.457936  -2.224322
C  -4.728145  -0.948835  -2.245082
C  -3.641187  2.504536  -2.011261
C  -4.277979  2.974234  0.338432
C  -4.621057  2.442590  -0.929731
C  -4.523171  2.175917  1.544292
C  -4.609442  -0.222770  2.190663
C  -5.142924  0.914938  1.440994
C  -4.785202  -1.424360  1.391678
C  -5.039447  -1.717575  -1.039989
C  -5.418052  -1.043904  0.134068
C  -5.298706  1.146574  -1.030007
C  -5.576202  0.412616  0.135053
