100
# Created by libgraph from Fullerene (http://tinyurl.com/fullerenes)
C  4.924755  0.205232  1.164098
C  5.065963  0.983847  -0.056732
C  4.976745  0.050108  -1.167057
C  5.073378  -1.311200  -0.637917
C  5.052493  -1.215716  0.822382
C  4.371224  -2.343625  -1.291050
C  3.751209  -3.413886  -0.502531
C  3.726148  -3.326578  0.909211
C  4.361634  -2.184137  1.577157
C  3.968532  0.356284  -2.080869
C  3.102196  -0.647926  -2.510748
C  3.455072  -2.001338  -2.381202
C  4.319659  2.180390  -0.140029
C  3.961969  2.691153  -1.404918
C  3.772781  1.695030  -2.451421
C  3.915049  0.603351  2.044605
C  3.661583  1.974556  2.221796
C  3.860844  2.806806  1.036639
C  3.461942  -1.722449  2.632928
C  3.104231  -0.359738  2.652084
C  2.488226  -3.628178  1.639174
C  2.369010  -2.684733  2.747310
C  2.541665  -3.839842  -1.211192
C  1.348850  -3.958338  -0.485288
C  1.329230  -3.833195  0.886219
C  2.393546  -3.004454  -2.395181
C  1.830238  -0.279588  -2.956743
C  0.830124  -1.242225  -3.027996
C  1.095045  -2.537260  -2.631309
C  2.543925  2.027531  -3.164651
C  1.529692  1.064694  -3.191559
C  2.852337  3.636005  -1.503907
C  2.152868  3.375045  -2.760493
C  2.711212  3.704554  0.915407
C  2.093279  3.814696  -0.343142
C  2.411502  2.394503  2.852044
C  1.846516  3.488072  2.070347
C  1.870165  0.046118  3.173306
C  1.516077  1.382804  3.212513
C  1.083958  -2.152398  2.944459
C  0.911929  -0.903016  3.497939
C  0.065337  -3.713705  1.454696
C  -0.055909  -2.760194  2.447373
C  0.104089  -4.027166  -1.122453
C  -1.009196  -4.618629  -0.522695
C  -1.043708  -4.394362  0.916742
C  -0.013359  -3.291323  -2.280024
C  -0.483393  -0.880769  -3.332019
C  -1.483025  -1.847203  -3.550982
C  -1.216611  -3.162637  -2.976319
C  0.191585  1.447278  -3.332420
C  -0.803471  0.468792  -3.246717
C  0.799440  3.763753  -2.859881
C  -0.138839  2.802889  -3.429110
C  0.707343  4.009827  -0.455203
C  0.130499  4.322810  -1.690007
C  0.464518  3.381860  1.848550
C  -0.108979  3.776351  0.651195
C  0.175093  1.671861  3.452782
C  -0.359036  2.747475  2.770471
C  -0.269420  -0.593181  4.199514
C  -0.618597  0.823862  4.231355
C  -1.311509  -2.275201  2.794759
C  -1.474953  -1.332644  3.824605
C  -2.351598  -3.833416  1.247436
C  -2.373255  -2.629042  1.968554
C  -2.336010  -4.316384  -1.068961
C  -3.194745  -3.922059  0.052583
C  -2.432680  -3.635301  -2.306300
C  -2.855747  -1.484067  -3.213519
C  -3.461017  -2.606672  -2.492219
C  -2.108421  0.821880  -2.926276
C  -3.050260  -0.187738  -2.710362
C  -1.476499  3.171791  -2.972423
C  -2.411084  2.162720  -2.682965
C  -1.303504  4.097971  -1.863569
C  -1.506882  3.796810  0.546723
C  -2.081442  3.821010  -0.725794
C  -1.703000  3.093247  2.900575
C  -2.307291  3.674559  1.700794
C  -2.071787  0.946263  4.073101
C  -2.618007  2.087595  3.437116
C  -2.564784  -0.370523  3.668942
C  -3.389413  -1.695408  1.794085
C  -3.302352  -0.473664  2.477516
C  -4.209189  -2.964906  -0.147351
C  -4.411315  -1.934170  0.872428
C  -4.371603  -2.324542  -1.454353
C  -4.123085  0.093871  -1.867845
C  -4.787452  -0.942134  -1.208098
C  -3.589892  2.506054  -2.004091
C  -4.462868  1.421892  -1.568250
C  -3.417177  3.432815  -0.895218
C  -3.628968  3.071265  1.540112
C  -4.173757  2.922125  0.247579
C  -3.683822  1.928071  2.448024
C  -3.873751  0.659285  1.890737
C  -4.953646  -0.752276  0.221443
C  -4.554755  0.518890  0.677357
C  -4.743644  1.633483  -0.155401
