100
# Created by libgraph from Fullerene (http://tinyurl.com/fullerenes)
C  3.524489  0.240518  2.888581
C  4.184621  1.231258  2.043827
C  4.906141  0.512788  1.000956
C  4.725781  -0.915619  1.253414
C  4.086108  -1.067587  2.559299
C  4.243737  -1.675134  0.181408
C  3.361893  -2.737816  0.432326
C  3.181641  -3.219688  1.730966
C  3.327120  -2.235577  2.796219
C  4.742831  0.997261  -0.314624
C  4.810153  0.109886  -1.407534
C  4.576335  -1.304207  -1.133633
C  3.421729  2.334649  1.636009
C  3.851842  3.120034  0.570137
C  4.422468  2.357078  -0.532017
C  2.132675  0.319658  3.007613
C  1.474866  1.531631  2.767515
C  2.173599  2.591074  2.200409
C  1.998956  -2.079466  3.376067
C  1.379670  -0.829002  3.249880
C  1.988815  -4.013744  2.021359
C  1.198343  -3.240179  2.978639
C  2.585789  -3.242456  -0.610848
C  1.710799  -4.324327  -0.423570
C  1.335001  -4.661882  0.948926
C  3.739693  -1.832095  -2.206359
C  2.615447  -2.570497  -1.830296
C  4.064451  0.453435  -2.613151
C  3.555686  -0.781100  -3.205956
C  3.613201  2.645247  -1.710571
C  3.203805  1.544402  -2.475882
C  2.918445  4.096701  0.013825
C  2.603316  3.633739  -1.335011
C  1.583230  3.857078  2.088916
C  1.869945  4.559685  0.840608
C  0.098515  1.644556  2.970387
C  -0.563563  2.833519  2.673128
C  0.144490  3.994766  2.345753
C  -0.011053  -0.722197  3.244439
C  -0.630141  0.516645  3.338187
C  -0.146417  -3.026381  2.643593
C  -0.783037  -1.845275  3.001777
C  -0.124542  -4.762891  0.979430
C  -0.838436  -3.923444  1.837820
C  0.504032  -4.356824  -1.249634
C  -0.621153  -4.708500  -0.387514
C  1.461297  -2.573080  -2.603334
C  0.352328  -3.265934  -2.113392
C  2.355465  -0.726330  -3.948379
C  1.384233  -1.804695  -3.770615
C  1.914526  1.482753  -3.012723
C  1.595637  0.522567  -3.986114
C  1.258358  3.338020  -1.593704
C  0.923837  2.317259  -2.484439
C  0.574179  4.783883  0.216213
C  0.242996  3.985374  -0.881633
C  -0.414910  4.822694  1.285172
C  -1.956018  2.806801  2.577345
C  -2.609839  3.743228  1.770841
C  -1.781456  4.645721  0.971548
C  -1.987287  0.596844  3.668614
C  -2.693399  1.777226  3.183379
C  -2.177233  -1.748723  2.982579
C  -2.822008  -0.568228  3.386405
C  -2.242146  -3.894963  1.765728
C  -2.932420  -2.790728  2.427714
C  -1.835143  -4.011878  -0.573338
C  -2.806839  -4.037231  0.433016
C  -0.908364  -2.752416  -2.390308
C  -2.029868  -3.192123  -1.686763
C  0.059899  -1.274174  -4.075894
C  -1.017625  -1.682096  -3.264227
C  0.190743  0.173307  -4.186534
C  -0.418320  2.049352  -2.750271
C  -0.753203  0.914406  -3.468516
C  -1.103307  3.745755  -1.188185
C  -1.435818  2.828234  -2.185669
C  -2.105526  4.340529  -0.414769
C  -3.670788  3.220106  0.917304
C  -3.428954  3.714425  -0.433648
C  -3.828365  1.312146  2.394769
C  -3.969046  1.860044  1.109772
C  -3.929240  -0.133765  2.548694
C  -3.992577  -2.329655  1.538840
C  -4.144690  -0.935933  1.418654
C  -3.967413  -3.150909  0.329044
C  -3.311008  -2.709835  -2.019508
C  -4.256140  -2.555794  -0.914924
C  -2.186266  -0.930470  -3.191083
C  -3.407312  -1.504092  -2.845722
C  -2.042992  0.436780  -3.304924
C  -2.785753  2.611077  -2.524030
C  -3.108188  1.314133  -3.116588
C  -3.795877  2.886416  -1.511174
C  -4.312568  1.045596  0.018132
C  -4.474571  1.617178  -1.251446
C  -4.413730  -0.348490  0.174500
C  -4.703405  -1.163965  -0.930490
C  -4.417827  -0.627041  -2.257993
C  -4.277375  0.770973  -2.422737
