100
# Created by libgraph from Fullerene (http://tinyurl.com/fullerenes)
C  3.325299  -3.320805  0.686487
C  2.760728  -3.987139  -0.481225
C  3.292937  -3.319683  -1.653401
C  4.405304  -2.467180  -1.224619
C  4.489975  -2.558489  0.235068
C  4.593398  -1.225302  -1.863241
C  5.055396  -0.069785  -1.084156
C  5.234124  -0.180076  0.309004
C  4.914072  -1.441170  0.980134
C  2.280728  -2.782153  -2.460024
C  2.359496  -1.441667  -2.838429
C  3.582826  -0.751767  -2.811472
C  1.371207  -4.193680  -0.490754
C  0.716035  -4.468625  -1.689904
C  1.138559  -3.563823  -2.746358
C  2.438040  -2.679035  1.560433
C  1.094502  -3.075592  1.591212
C  0.613023  -3.977846  0.652825
C  4.172867  -1.101520  2.190204
C  2.862142  -1.574212  2.311376
C  4.790460  0.906480  1.191784
C  4.397367  0.315016  2.462349
C  4.385106  1.118496  -1.607289
C  3.756123  2.000625  -0.709261
C  3.959296  1.898417  0.663264
C  3.552817  0.706186  -2.728107
C  1.170110  -0.764133  -3.111079
C  1.157385  0.624433  -3.154901
C  2.295153  1.309919  -2.789804
C  -0.052489  -2.861431  -3.216599
C  -0.029366  -1.460310  -3.184920
C  -0.745827  -4.535669  -1.687809
C  -1.222385  -3.488081  -2.593873
C  -0.659179  -4.545489  0.793475
C  -1.406875  -4.731596  -0.450789
C  0.199512  -2.467805  2.462530
C  -1.127793  -2.905154  2.563540
C  -1.577166  -3.980825  1.787115
C  1.936904  -0.880312  3.097077
C  0.603596  -1.311998  3.106265
C  3.482938  1.028160  3.267104
C  2.313962  0.306819  3.759135
C  3.220370  2.735182  1.511441
C  3.011933  2.352859  2.844456
C  2.807165  2.923347  -1.167210
C  2.471714  4.058872  -0.435998
C  2.592713  3.896457  1.009295
C  2.094253  2.586001  -2.300711
C  -0.023314  1.337959  -3.399953
C  -0.010254  2.736744  -3.515255
C  1.108009  3.409356  -2.851423
C  -1.207857  -0.721219  -3.089201
C  -1.229090  0.642800  -3.376015
C  -2.233356  -2.642221  -2.107637
C  -2.330617  -1.327453  -2.554818
C  -2.714892  -4.108841  -0.256018
C  -3.085090  -3.051897  -1.085116
C  -2.883558  -3.823555  1.162323
C  -2.051339  -2.191393  3.350616
C  -3.379752  -2.041352  2.761171
C  -3.621694  -2.672954  1.526735
C  -0.366872  -0.476318  3.612670
C  -1.663407  -0.895130  3.901944
C  1.243591  1.282401  3.960568
C  -0.038905  0.851499  3.614471
C  1.665053  2.550419  3.367636
C  1.281173  4.169295  1.582609
C  0.786194  3.203978  2.481299
C  1.186551  4.701277  -0.725123
C  0.395310  4.616805  0.501090
C  0.559575  4.441055  -1.970677
C  -1.229386  3.456837  -3.165637
C  -0.894874  4.270678  -1.999675
C  -2.449684  1.313458  -3.503430
C  -2.449337  2.740944  -3.181993
C  -3.493147  -0.581929  -2.348171
C  -3.619816  0.715847  -2.863539
C  -4.252843  -2.334905  -0.792529
C  -4.490278  -1.084778  -1.508559
C  -4.540281  -2.112290  0.617857
C  -3.794179  -0.643613  2.914250
C  -4.381170  0.024195  1.821659
C  -4.947797  -0.715342  0.772938
C  -2.731604  0.064528  3.617200
C  -0.996065  1.691572  3.093832
C  -2.344382  1.317060  3.098823
C  -0.553021  2.796476  2.398522
C  -0.864248  4.012982  0.398538
C  -1.419841  3.382273  1.496339
C  -1.541621  3.919179  -0.812524
C  -3.355807  2.900410  -2.045347
C  -2.831545  3.365013  -0.834695
C  -4.194597  1.707263  -1.965863
C  -5.007821  -0.111574  -0.557013
C  -4.588973  1.226954  -0.699084
C  -4.345262  1.432444  1.748051
C  -4.490466  2.055183  0.431838
C  -3.286478  2.138903  2.463290
C  -2.807547  3.224001  1.603267
C  -3.561841  3.182060  0.356122
