100
# Created by libgraph from Fullerene (http://tinyurl.com/fullerenes)
C  3.849033  0.904717  2.627148
C  3.744123  2.169125  1.905079
C  4.729227  2.148741  0.830633
C  5.303777  0.798844  0.779511
C  4.842850  0.062841  1.960443
C  5.420768  0.139769  -0.455859
C  5.116242  -1.292291  -0.549344
C  4.795093  -2.035891  0.613874
C  4.647697  -1.337847  1.894893
C  4.423176  2.838519  -0.359193
C  4.526330  2.137477  -1.639582
C  4.931704  0.788849  -1.676234
C  2.438980  2.611257  1.608084
C  2.192014  3.398009  0.481613
C  3.214315  3.666552  -0.432249
C  2.643448  0.306325  2.981241
C  1.510203  1.068001  3.189810
C  1.348922  2.162444  2.362624
C  3.496794  -1.925649  2.592071
C  2.472684  -1.060232  2.993738
C  3.753029  -3.074839  0.562401
C  3.036442  -3.085602  1.832452
C  4.308815  -1.485269  -1.751207
C  3.156191  -2.258001  -1.632484
C  2.934555  -3.095779  -0.566459
C  4.100052  -0.181657  -2.380154
C  3.355654  2.528578  -2.423905
C  2.407814  1.543536  -2.719231
C  2.777356  0.198427  -2.673020
C  2.830570  3.750227  -1.832281
C  0.882505  3.814201  0.196087
C  0.609537  4.476511  -1.005755
C  1.503663  4.143715  -2.108652
C  0.071452  2.679666  2.173710
C  -0.172938  3.452687  1.043839
C  0.520107  0.633288  4.079719
C  -0.775026  1.303324  3.996470
C  -0.975190  2.299195  3.021871
C  1.179967  -1.516128  3.266569
C  0.295013  -0.809641  4.101540
C  1.639167  -3.249560  1.691505
C  0.743652  -2.581469  2.504685
C  1.725371  -3.792128  -0.588594
C  1.083803  -3.938564  0.620380
C  2.087122  -2.088544  -2.494171
C  1.243506  -3.144878  -2.856657
C  1.119802  -4.143160  -1.801824
C  1.785495  -0.778033  -2.786155
C  1.067071  1.900143  -2.935692
C  0.085786  0.899282  -2.988365
C  0.462506  -0.443139  -3.022653
C  0.719645  3.256439  -2.959436
C  -0.746255  4.388347  -1.533269
C  -0.689274  3.582123  -2.741046
C  -1.494101  3.731837  0.688957
C  -1.767557  4.016580  -0.646861
C  -2.274780  2.795240  2.821145
C  -2.525969  3.598810  1.627854
C  -1.803559  0.271358  3.979300
C  -2.883188  0.506270  3.107207
C  -3.343775  1.818192  2.938284
C  -1.141719  -1.030569  3.914701
C  -0.614473  -2.856561  2.390478
C  -1.496855  -1.887110  2.860151
C  -0.147119  -4.593717  0.722018
C  -1.063972  -3.992546  1.691637
C  -0.274957  -4.598510  -1.756082
C  -0.891741  -4.862103  -0.509904
C  -0.107019  -2.807871  -3.288824
C  -1.005534  -3.843539  -2.780731
C  -0.494064  -1.464038  -3.137082
C  -1.266266  1.222829  -2.854363
C  -2.201207  0.193633  -2.726312
C  -1.839487  -1.138413  -2.962925
C  -1.648578  2.556172  -2.694755
C  -3.043073  3.763334  -1.156337
C  -2.961866  2.885365  -2.308665
C  -3.852778  3.235871  1.118066
C  -4.093680  3.266150  -0.270651
C  -4.344638  2.107152  1.913956
C  -3.419053  -0.525098  2.327139
C  -4.624979  -0.344324  1.639768
C  -5.000888  1.028909  1.289046
C  -2.678826  -1.697795  2.149657
C  -2.370460  -3.859313  1.052609
C  -3.041282  -2.627196  1.167682
C  -2.282987  -4.461359  -0.281966
C  -2.355819  -3.501845  -2.579855
C  -3.025331  -3.899257  -1.338397
C  -2.811070  -2.146895  -2.900839
C  -3.467836  0.482123  -2.219393
C  -4.222487  -0.564990  -1.700947
C  -3.998623  -1.890884  -2.099658
C  -3.919244  1.801963  -2.119643
C  -4.719530  2.119945  -0.933825
C  -5.241229  1.066427  -0.155457
C  -4.883007  -1.182722  0.475282
C  -5.109463  -0.301268  -0.654410
C  -4.007509  -2.256037  0.231893
C  -4.012764  -2.867060  -1.027466
