100
# Created by libgraph from Fullerene (http://tinyurl.com/fullerenes)
C  3.675133  -2.534554  1.566319
C  4.565695  -1.495509  1.067529
C  4.744744  -1.724026  -0.353438
C  4.163010  -3.027909  -0.679093
C  3.655674  -3.602263  0.569069
C  3.418023  -3.161068  -1.866973
C  2.236049  -4.032385  -1.884180
C  1.851573  -4.735386  -0.721792
C  2.558178  -4.482564  0.534613
C  4.389084  -0.593976  -1.100431
C  3.447790  -0.710361  -2.121064
C  3.112047  -1.965442  -2.661275
C  4.271727  -0.167609  1.418022
C  4.898999  0.879187  0.742172
C  4.875311  0.665692  -0.695495
C  2.436697  -2.143357  2.090226
C  2.240515  -0.819328  2.489208
C  3.254394  0.118843  2.320968
C  1.531623  -4.318676  1.557988
C  1.368456  -3.044243  2.107223
C  0.427866  -4.872216  -0.381046
C  0.324062  -4.963895  1.066848
C  1.197494  -3.354598  -2.655001
C  -0.080041  -3.228590  -2.084098
C  -0.477217  -4.015342  -1.007720
C  1.767994  -2.128369  -3.207786
C  2.740666  0.437659  -2.495833
C  1.482182  0.289321  -3.054738
C  0.958800  -0.986414  -3.175042
C  4.301912  1.856836  -1.314586
C  3.215009  1.711967  -2.184781
C  4.476586  2.252195  1.018234
C  4.056128  2.834218  -0.259556
C  3.180625  1.368440  2.946548
C  3.712386  2.497526  2.181013
C  0.991146  -0.400421  2.936650
C  0.803748  0.929111  3.326419
C  1.898237  1.785670  3.515575
C  0.111635  -2.633864  2.566084
C  -0.089065  -1.281936  2.865095
C  -0.927005  -4.640180  1.638517
C  -0.950530  -3.551502  2.608058
C  -1.761760  -3.837263  -0.470396
C  -2.071730  -4.386908  0.772481
C  -0.944946  -2.217775  -2.497670
C  -2.295938  -2.239445  -2.192222
C  -2.695747  -3.006036  -1.103755
C  -0.416594  -1.094299  -3.084421
C  0.694844  1.407426  -3.344487
C  -0.686603  1.244119  -3.514430
C  -1.245295  -0.032230  -3.428978
C  2.525971  2.861897  -2.608771
C  1.268411  2.683073  -3.333838
C  2.824453  3.511410  -0.325158
C  2.305018  3.869100  -1.582856
C  2.635479  3.475099  2.096288
C  2.074126  3.724031  0.838557
C  1.711590  3.194406  3.191059
C  -0.498765  1.430364  3.409754
C  -0.714106  2.804188  3.532433
C  0.387551  3.672865  3.129046
C  -1.383513  -0.779763  2.966413
C  -1.591882  0.571861  3.253674
C  -2.309940  -2.998310  2.613853
C  -2.459171  -1.606189  2.650062
C  -3.068507  -3.688223  1.569898
C  -3.979200  -2.842300  -0.576959
C  -4.087307  -2.995356  0.873249
C  -3.184491  -1.403863  -2.885401
C  -4.376142  -0.980077  -2.154643
C  -4.736776  -1.650541  -0.964077
C  -2.629085  -0.221305  -3.555356
C  -1.507127  2.364952  -3.637911
C  -2.899748  2.194844  -3.221474
C  -3.491938  0.912266  -3.246129
C  0.379921  3.776900  -2.945713
C  -1.020355  3.606595  -3.053387
C  0.911444  4.292275  -1.686731
C  0.726767  4.087985  0.731907
C  0.134667  4.133315  -0.536469
C  -0.043212  4.304124  1.886976
C  -1.928022  3.339994  2.936766
C  -1.483518  4.078046  1.757653
C  -2.895610  1.084322  3.266604
C  -3.038822  2.473821  2.844181
C  -3.653921  -1.007775  2.252556
C  -3.940104  0.320826  2.591675
C  -4.507933  -1.695787  1.387623
C  -4.947941  -0.879810  0.261654
C  -4.338891  0.478323  -2.135396
C  -4.145122  1.105675  -0.900202
C  -4.551793  0.470664  0.280382
C  -3.047450  2.981813  -2.002621
C  -3.453566  2.320110  -0.831187
C  -1.870473  3.846348  -1.889806
C  -1.236921  3.907337  -0.643891
C  -1.952785  3.630753  0.517034
C  -3.763637  2.427444  1.578274
C  -3.080856  2.818341  0.423354
C  -4.460336  1.145657  1.512481
