100
# Created by libgraph from Fullerene (http://tinyurl.com/fullerenes)
C  4.414656  -1.686399  0.762084
C  3.946636  -2.830693  -0.018452
C  4.042540  -2.481661  -1.429369
C  4.541777  -1.111868  -1.500471
C  5.004410  -0.730117  -0.167951
C  3.747447  -0.212640  -2.217241
C  3.593208  1.098022  -1.742412
C  4.448983  1.608261  -0.760759
C  5.018707  0.639830  0.169153
C  2.942726  -2.851060  -2.233634
C  2.580872  -2.056529  -3.340904
C  3.042807  -0.667988  -3.344626
C  2.767560  -3.472099  0.385405
C  2.160201  -4.384931  -0.476221
C  2.155905  -3.969243  -1.872262
C  3.567243  -1.160179  1.743199
C  2.469908  -1.901864  2.177089
C  2.141209  -3.124143  1.581727
C  4.563121  1.029869  1.501492
C  3.750626  0.146208  2.217085
C  4.001939  2.760705  0.020210
C  4.089740  2.408809  1.430948
C  2.508635  1.860020  -2.176845
C  2.200791  3.087765  -1.581206
C  2.835677  3.422230  -0.385417
C  1.957444  0.171308  -3.841565
C  1.645096  1.335790  -3.123280
C  1.184086  -2.064820  -3.767293
C  0.816111  -0.692492  -4.123578
C  0.767740  -3.970171  -2.317647
C  0.309680  -2.808623  -2.955294
C  0.833608  -4.901715  -0.143697
C  -0.057150  -4.532353  -1.243864
C  1.118167  -3.928724  2.121531
C  0.376316  -4.777775  1.187431
C  1.613703  -1.362418  3.124015
C  0.354434  -1.935415  3.232924
C  0.148961  -3.298001  3.019404
C  3.055097  0.613450  3.344447
C  1.953978  -0.205773  3.841002
C  2.996061  2.797598  2.234469
C  2.619264  2.009865  3.341541
C  2.241431  4.344885  0.476703
C  2.229324  3.929188  1.872772
C  1.191436  3.910213  -2.120485
C  0.463674  4.770191  -1.185836
C  0.924047  4.885371  0.144847
C  0.394855  1.931787  -3.232969
C  0.211888  3.297194  -3.019563
C  -0.429308  -0.251702  -3.654453
C  -0.678856  1.081914  -3.394339
C  -0.977681  -2.322960  -2.695725
C  -1.404144  -1.147966  -3.280208
C  -1.242690  -3.869295  -0.895869
C  -1.791515  -2.915924  -1.744958
C  -1.047813  -4.527815  1.413392
C  -1.827880  -4.057382  0.352816
C  -1.189814  -3.722045  2.615845
C  -0.707561  -1.067431  3.397119
C  -2.010788  -1.475390  3.135984
C  -2.208660  -2.744183  2.586244
C  0.829070  0.678508  4.123463
C  -0.426617  0.261634  3.656955
C  1.222835  2.043085  3.767597
C  0.841486  3.954629  2.318368
C  0.362084  2.801786  2.956082
C  0.027246  4.532992  1.245666
C  -0.964702  4.544466  -1.412268
C  -1.753683  4.088173  -0.351884
C  -1.170332  3.894513  0.897491
C  -1.119969  3.742425  -2.615427
C  -1.978621  1.509754  -3.135972
C  -2.155408  2.781927  -2.586665
C  -2.760682  -0.815523  -3.346186
C  -3.055449  0.619828  -3.304901
C  -3.103244  -2.455459  -1.558706
C  -3.659269  -1.485663  -2.413727
C  -3.151426  -3.651627  0.598031
C  -3.828783  -2.873907  -0.435707
C  -3.387970  -2.997468  1.875019
C  -3.071037  -0.566543  3.302984
C  -4.231708  -0.738153  2.430070
C  -4.350364  -1.914036  1.663827
C  -1.389611  1.177380  3.287506
C  -2.750128  0.863376  3.345390
C  -0.934622  2.340411  2.698190
C  -1.736460  2.947523  1.745055
C  -3.083856  3.704741  -0.598759
C  -3.775104  2.938220  0.433382
C  -3.055250  2.510255  1.555919
C  -3.330693  3.055777  -1.876481
C  -4.214647  0.812573  -2.434060
C  -4.312729  1.989880  -1.667005
C  -4.496871  -0.469916  -1.789456
C  -4.585354  -1.813356  0.223110
C  -4.577899  -0.545576  -0.389557
C  -4.488234  0.548831  1.783918
C  -4.568454  0.623996  0.383738
C  -3.632484  1.549415  2.409034
C  -4.550925  1.892443  -0.226519
