100
# Created by libgraph from Fullerene (http://tinyurl.com/fullerenes)
C  4.553954  -0.978664  2.034856
C  4.829094  0.423300  1.764814
C  5.447429  0.519338  0.447249
C  5.473704  -0.825739  -0.132570
C  4.993142  -1.766382  0.882548
C  5.135358  -1.011889  -1.483136
C  4.317148  -2.164077  -1.876323
C  3.929379  -3.126996  -0.911904
C  4.269207  -2.912094  0.499557
C  5.152350  1.635806  -0.355242
C  4.806175  1.442796  -1.763159
C  4.735278  0.139032  -2.300179
C  3.797786  1.306501  2.115787
C  3.460494  2.366814  1.258454
C  4.277384  2.686359  0.167208
C  3.319065  -1.261848  2.633780
C  2.801591  -0.365251  3.589683
C  3.053495  1.040974  3.282465
C  3.113958  -3.306078  1.307565
C  2.565971  -2.355209  2.195657
C  2.578123  -3.705743  -0.947892
C  2.162373  -3.980120  0.426692
C  3.324851  -1.687640  -2.836775
C  1.989721  -2.041294  -2.613263
C  1.632015  -3.054841  -1.744538
C  3.556145  -0.258131  -3.064683
C  3.741086  2.398741  -2.074721
C  2.518512  1.897341  -2.525423
C  2.438153  0.585341  -2.998285
C  3.670145  3.356856  -0.976325
C  2.249405  3.046309  1.436163
C  1.871555  4.089186  0.567835
C  2.479595  4.085841  -0.762663
C  1.812758  1.782266  3.480703
C  1.366308  2.591468  2.418371
C  1.404100  -0.482138  4.014195
C  0.824651  0.857985  4.041469
C  1.210890  -2.409200  2.548320
C  0.639853  -1.461901  3.374456
C  0.804131  -3.728184  0.682200
C  0.370104  -3.299457  1.904513
C  0.261128  -3.242669  -1.535472
C  -0.146512  -3.686711  -0.309832
C  0.949651  -1.268872  -3.112206
C  -0.349619  -1.737316  -3.243095
C  -0.699071  -2.802500  -2.436277
C  1.173580  0.067544  -3.247902
C  1.339507  2.652103  -2.381910
C  0.114704  2.088439  -2.776526
C  0.075869  0.878644  -3.432137
C  1.383874  3.883372  -1.708275
C  0.441862  4.364354  0.386742
C  0.143979  4.282552  -1.041084
C  0.005714  2.845409  2.239639
C  -0.438529  3.652806  1.212556
C  -0.479413  0.952486  3.524892
C  -0.927882  2.126634  2.968596
C  -0.753013  -1.407889  3.369783
C  -1.317280  -0.144640  3.386806
C  -0.937145  -3.597326  2.332690
C  -1.522788  -2.567205  3.186507
C  -1.506496  -3.859010  -0.040575
C  -1.931339  -3.931197  1.299338
C  -2.007225  -3.285097  -2.400450
C  -2.439700  -3.808492  -1.095977
C  -1.285603  -1.028030  -4.007468
C  -2.698987  -1.296579  -3.717788
C  -3.059198  -2.411689  -2.921331
C  -1.092004  0.425413  -4.075188
C  -1.082077  2.620966  -2.338930
C  -2.312550  2.097769  -2.757430
C  -2.359869  1.052948  -3.700250
C  -1.017666  3.530935  -1.307825
C  -1.790833  3.540009  0.902636
C  -2.095080  3.518655  -0.438595
C  -2.295870  2.447942  2.999186
C  -2.745135  3.283331  1.891484
C  -2.671096  0.041773  3.092994
C  -3.233218  1.332050  3.118137
C  -2.913532  -2.366423  2.772242
C  -3.410909  -1.056522  2.645762
C  -3.174345  -3.242366  1.629005
C  -3.712706  -3.173582  -0.767566
C  -3.925583  -2.719901  0.552510
C  -4.042674  -2.246424  -1.851799
C  -3.334178  -0.005233  -3.443653
C  -4.109368  0.156739  -2.280866
C  -4.460936  -0.954308  -1.499466
C  -3.496548  2.521133  -2.118383
C  -4.462708  1.457937  -1.874267
C  -3.396946  3.316077  -0.891101
C  -4.054755  2.793535  1.443796
C  -4.383246  2.816619  0.067321
C  -4.373564  1.606303  2.244952
C  -4.613231  -0.853581  1.961874
C  -5.039247  0.514261  1.655624
C  -4.843799  -1.678408  0.786453
C  -5.184835  -0.785907  -0.312310
C  -5.048395  1.666470  -0.548609
C  -5.389599  0.553295  0.235564
