100
# Created by libgraph from Fullerene (http://tinyurl.com/fullerenes)
C  3.873621  -0.809170  2.454055
C  4.719106  -0.308927  1.378741
C  4.859444  -1.379598  0.411071
C  4.383024  -2.619579  1.024054
C  3.830010  -2.272297  2.335622
C  3.727716  -3.564462  0.207182
C  2.621592  -4.353644  0.755531
C  2.104170  -4.052206  2.030336
C  2.714714  -2.979208  2.827320
C  4.372741  -1.012982  -0.847669
C  3.436308  -1.832019  -1.471226
C  3.370188  -3.193904  -1.163858
C  4.390472  0.946526  0.838416
C  4.884241  1.307982  -0.415876
C  4.725149  0.238955  -1.382980
C  2.665798  -0.137757  2.687586
C  2.511556  1.200854  2.296441
C  3.467019  1.778129  1.464466
C  1.633090  -2.214250  3.439182
C  1.567520  -0.827368  3.193953
C  0.650900  -3.981535  2.221408
C  0.392210  -2.946427  3.215453
C  1.689956  -4.628529  -0.338062
C  0.313151  -4.448479  -0.147656
C  -0.172292  -4.001768  1.080014
C  2.165609  -3.934118  -1.520764
C  2.487708  -1.236046  -2.301360
C  1.313438  -1.932921  -2.614193
C  1.165082  -3.272380  -2.248961
C  3.885357  0.753252  -2.455492
C  2.666022  0.101242  -2.687023
C  4.426283  2.555475  -1.026834
C  3.866201  2.216431  -2.337226
C  3.422846  3.143141  1.162628
C  3.786104  3.509716  -0.208326
C  1.348524  1.916691  2.614188
C  1.219403  3.257552  2.249749
C  2.230587  3.903310  1.520934
C  0.354104  -0.139521  3.321554
C  0.259673  1.232456  3.151013
C  -0.734327  -2.159931  2.974949
C  -0.802417  -0.873453  3.432094
C  -1.455235  -3.437523  1.121362
C  -1.753979  -2.549777  2.139109
C  -0.540025  -4.573926  -1.259760
C  -1.954246  -4.239700  -1.097591
C  -2.370646  -3.635065  0.089981
C  -0.057370  -3.927858  -2.468894
C  0.231634  -1.233668  -3.151606
C  -1.007635  -1.853626  -3.363200
C  -1.183887  -3.203661  -3.054280
C  1.575024  0.806662  -3.191738
C  0.351892  0.137902  -3.320296
C  2.761552  2.939648  -2.827089
C  1.667570  2.191131  -3.436871
C  2.691934  4.315611  -0.755988
C  2.168636  4.021887  -2.030073
C  1.765437  4.604154  0.337918
C  0.004866  3.928875  2.469481
C  -0.468955  4.578095  1.258635
C  0.387934  4.440815  0.150639
C  -0.974301  1.867125  3.364183
C  -1.131746  3.219777  3.055088
C  -2.025825  -0.326884  3.808614
C  -2.103286  1.129467  3.768231
C  -3.002963  -1.925010  2.228062
C  -3.208805  -0.872339  3.143349
C  -3.670712  -3.112379  0.173057
C  -4.006614  -2.261708  1.315459
C  -2.386050  -3.532758  -2.296957
C  -3.337668  -2.495710  -2.151452
C  -4.191439  -2.479887  -1.031799
C  -2.125061  -1.100486  -3.766825
C  -3.370514  -1.438712  -3.081379
C  -0.796795  0.889964  -3.439403
C  -2.025983  0.354697  -3.808396
C  0.438637  2.941914  -3.212553
C  -0.702767  2.174525  -2.974878
C  0.714465  3.972601  -2.219893
C  -0.107382  4.004409  -1.079030
C  -1.887838  4.264453  1.097196
C  -2.313872  3.667405  -0.090276
C  -1.399263  3.464756  -1.121814
C  -2.329179  3.565387  2.297477
C  -3.344262  1.485858  3.083346
C  -3.294887  2.542245  2.153720
C  -4.021757  0.247742  2.688244
C  -4.786737  -1.131776  0.822639
C  -4.561110  0.139143  1.392518
C  -4.835127  -1.227174  -0.634834
C  -4.028013  -0.190413  -2.684735
C  -4.564463  -0.074950  -1.388085
C  -3.198787  0.917545  -3.141281
C  -1.722345  2.581711  -2.140539
C  -2.976210  1.968432  -2.227711
C  -3.621262  3.162000  -0.171409
C  -3.972750  2.317137  -1.312681
C  -4.150134  2.537987  1.034546
C  -4.814094  1.295399  0.638774
C  -4.769205  1.199296  -0.818747
