100
# Created by libgraph from Fullerene (http://tinyurl.com/fullerenes)
C  4.952580  -0.792981  0.966635
C  5.189878  -0.046226  -0.257503
C  4.823819  -0.920361  -1.359307
C  4.681700  -2.283057  -0.841416
C  4.756088  -2.205235  0.618284
C  3.757172  -3.149456  -1.458499
C  2.981287  -4.088675  -0.640767
C  3.031816  -4.003052  0.770745
C  3.910491  -3.013406  1.405592
C  3.830679  -0.401755  -2.190856
C  2.764895  -1.218400  -2.573081
C  2.868089  -2.617199  -2.492549
C  4.720169  1.285800  -0.282084
C  4.375482  1.877113  -1.510614
C  3.864476  0.962480  -2.526345
C  4.090122  -0.198619  1.890063
C  4.156698  1.190235  2.101181
C  4.519010  1.978712  0.926199
C  3.160536  -2.375217  2.485811
C  3.099948  -0.969664  2.501468
C  1.789057  -4.051277  1.552575
C  1.893121  -3.086172  2.642499
C  1.684257  -4.276899  -1.296643
C  0.522218  -4.174667  -0.519476
C  0.584028  -4.038139  0.848083
C  1.641060  -3.411102  -2.467176
C  1.554878  -0.611941  -2.916100
C  0.396226  -1.378238  -2.982819
C  0.439789  -2.711886  -2.634522
C  2.651196  1.546467  -3.085641
C  1.483149  0.774994  -3.041473
C  3.536229  3.076013  -1.526827
C  2.539985  2.911460  -2.582036
C  3.686126  3.183790  0.909832
C  3.102728  3.609103  -0.297823
C  3.037055  1.863508  2.754410
C  2.782775  3.118249  2.053195
C  1.984907  -0.309212  3.020368
C  1.927328  1.071101  3.036388
C  0.745938  -2.300092  2.857421
C  0.850159  -1.025359  3.369751
C  -0.610450  -3.671284  1.458596
C  -0.512401  -2.686524  2.420570
C  -0.742315  -4.016805  -1.098538
C  -1.916941  -4.395970  -0.446435
C  -1.846107  -4.149239  0.987915
C  -0.772700  -3.260646  -2.246691
C  -0.844870  -0.782545  -3.223711
C  -2.006618  -1.555467  -3.434848
C  -1.960025  -2.908807  -2.890893
C  0.223677  1.379772  -2.991494
C  -0.925760  0.599232  -3.075033
C  1.265155  3.406560  -2.275969
C  0.122548  2.739781  -2.708896
C  2.014941  4.511150  -0.263815
C  1.139409  4.504979  -1.425016
C  1.438630  3.477299  1.820177
C  1.154449  4.503758  0.912722
C  0.671255  1.635222  3.178703
C  0.390441  2.740812  2.391803
C  -0.228080  -0.445413  4.063174
C  -0.298461  1.011423  3.975687
C  -1.642846  -1.967197  2.799596
C  -1.566071  -0.971935  3.785388
C  -3.019948  -3.364649  1.366161
C  -2.812816  -2.162183  2.065667
C  -3.190385  -3.864160  -0.940409
C  -3.921934  -3.332242  0.214054
C  -3.214499  -3.168093  -2.172648
C  -3.285406  -0.967874  -3.046121
C  -4.055016  -1.974368  -2.313984
C  -2.163778  1.177346  -2.847153
C  -3.212761  0.325461  -2.515778
C  -1.113246  3.400858  -2.733105
C  -2.316870  2.568656  -2.816574
C  -0.208843  4.872803  -0.986957
C  -1.336819  4.420763  -1.713470
C  -0.226975  4.696552  0.461766
C  -0.936985  3.003877  2.062057
C  -1.208105  3.846624  0.986371
C  -1.688695  1.386790  3.728915
C  -1.974697  2.322260  2.718465
C  -2.478015  0.160166  3.660862
C  -3.714196  -1.099204  1.959332
C  -3.463531  0.094778  2.656311
C  -4.781981  -2.230504  0.049429
C  -4.802472  -1.197655  1.085374
C  -4.867414  -1.547489  -1.242369
C  -4.097292  0.762006  -1.538112
C  -5.012610  -0.115442  -0.959600
C  -3.256218  3.036527  -1.804697
C  -3.959838  2.067393  -1.058450
C  -2.555009  4.026597  -1.002176
C  -2.444710  3.729227  0.358382
C  -3.306270  2.473948  2.294042
C  -3.542443  3.197675  1.049548
C  -4.131538  1.270176  2.281543
C  -5.258495  0.039616  0.465450
C  -4.932488  1.279259  1.058411
C  -4.421706  2.375612  0.229528
