100
# Created by libgraph from Fullerene (http://tinyurl.com/fullerenes)
C  3.108055  -3.287200  1.414529
C  3.698050  -2.122096  2.079715
C  4.597236  -1.475308  1.135707
C  4.452651  -2.165469  -0.142655
C  3.701119  -3.400629  0.081701
C  4.104637  -1.351391  -1.223652
C  3.170791  -1.812475  -2.164049
C  2.833365  -3.167847  -2.232059
C  2.934363  -3.926361  -0.986857
C  4.605606  -0.063051  1.143083
C  4.915596  0.637276  -0.035233
C  4.625456  -0.046063  -1.292201
C  2.839624  -1.276712  2.806007
C  3.294802  -0.013816  3.220132
C  4.230372  0.637082  2.306403
C  1.722118  -3.430755  1.497014
C  1.013642  -2.842707  2.528459
C  1.500727  -1.639418  3.001783
C  1.594231  -4.433980  -0.700263
C  0.986194  -4.035851  0.495731
C  1.583135  -3.546677  -2.893998
C  0.770116  -4.232414  -1.888973
C  2.505463  -0.885490  -2.965517
C  1.550692  -1.282576  -3.912304
C  0.975033  -2.620265  -3.772976
C  3.935829  0.895683  -2.161292
C  2.731758  0.466972  -2.724194
C  4.493262  2.031925  -0.174165
C  3.934798  2.202240  -1.511690
C  3.836109  2.042192  2.175348
C  3.816042  2.637417  0.900551
C  2.312995  0.985825  3.639360
C  2.650123  2.254735  2.997362
C  0.592220  -0.729504  3.510778
C  0.975087  0.593306  3.586461
C  -0.216424  -3.374529  2.947767
C  -1.126719  -2.447749  3.616947
C  -0.728644  -1.109424  3.779650
C  -0.401611  -4.097951  0.667895
C  -0.979650  -4.108474  1.942518
C  -0.528212  -3.749508  -1.672519
C  -1.185083  -3.984446  -0.467425
C  -0.478851  -2.454269  -3.720386
C  -1.155926  -2.916325  -2.584343
C  0.463846  -0.348679  -4.201360
C  -0.794981  -1.078042  -4.091658
C  1.688057  1.355838  -2.951326
C  0.527764  0.892234  -3.552513
C  2.779022  2.993281  -1.583240
C  1.745105  2.660815  -2.457633
C  3.046682  3.803268  0.682338
C  2.620927  4.052310  -0.687283
C  1.597287  2.994313  2.419247
C  1.890571  4.040710  1.537854
C  -0.026774  1.522529  3.423661
C  0.265620  2.613621  2.626749
C  -1.696838  -0.131094  4.081127
C  -1.306433  1.270821  3.923912
C  -2.447212  -2.615585  3.017814
C  -3.128809  -1.441394  2.652782
C  -3.004509  -0.304715  3.465106
C  -2.386571  -3.727042  2.068154
C  -2.584523  -3.966132  -0.400718
C  -3.185496  -3.688546  0.904714
C  -2.435124  -2.445850  -2.259379
C  -3.277609  -3.154784  -1.396766
C  -1.806239  -0.438736  -3.347447
C  -2.782351  -1.177629  -2.696855
C  -0.618161  1.638678  -3.341692
C  -1.787576  0.931951  -3.113710
C  0.723352  3.585000  -2.738713
C  -0.543461  3.030230  -3.222333
C  1.329707  4.742345  -0.653051
C  0.418146  4.589524  -1.724152
C  0.816518  4.592136  0.705039
C  -0.772428  3.210049  1.921441
C  -0.463635  4.042803  0.849849
C  -2.398383  1.973225  3.258529
C  -2.100101  2.857658  2.205942
C  -3.431089  0.990661  2.948835
C  -3.851486  -1.378830  1.452632
C  -4.273141  -0.134313  0.953826
C  -3.986862  1.043163  1.661692
C  -4.084770  -2.551299  0.717957
C  -4.338158  -2.417230  -0.715360
C  -4.015430  -0.597520  -2.381364
C  -4.724831  -1.162258  -1.233571
C  -2.873457  1.559790  -2.505404
C  -4.066718  0.862430  -2.266088
C  -1.631562  3.660099  -2.482522
C  -2.689830  2.853232  -2.015274
C  -1.019168  4.487354  -1.453640
C  -1.422984  4.207866  -0.145394
C  -3.140611  3.283700  1.365845
C  -2.778105  3.968264  0.129797
C  -4.170682  2.297673  1.058079
C  -4.912563  -0.064260  -0.292169
C  -4.795564  1.182998  -1.045548
C  -4.461866  2.375630  -0.371074
C  -3.486686  3.303814  -0.953835
