100
# Created by libgraph from Fullerene (http://tinyurl.com/fullerenes)
C  4.907736  -0.427482  1.202853
C  5.170108  0.113484  -0.121136
C  4.886866  -0.946175  -1.084185
C  4.536167  -2.153873  -0.335424
C  4.702073  -1.870933  1.088606
C  3.393273  -2.843971  -0.761467
C  2.564937  -3.475011  0.182420
C  2.951911  -3.571514  1.520761
C  3.857457  -2.537154  2.003268
C  4.121784  -0.612105  -2.215549
C  3.390543  -1.615064  -2.886795
C  3.046547  -2.815077  -2.123464
C  4.675243  1.411305  -0.361035
C  4.323904  1.796955  -1.666958
C  4.034730  0.732362  -2.631668
C  4.015278  0.303392  1.985187
C  4.099549  1.697045  2.009581
C  4.456734  2.288084  0.726176
C  3.072496  -1.718558  2.921168
C  2.974076  -0.353562  2.628688
C  1.901009  -3.722091  2.518623
C  1.827252  -2.434263  3.203918
C  1.292497  -3.916495  -0.190032
C  0.468572  -4.617396  0.704921
C  0.706379  -4.360371  2.122969
C  1.687515  -3.210508  -2.480539
C  0.804917  -3.535585  -1.432251
C  2.213164  -1.222896  -3.657079
C  1.185046  -2.246121  -3.452540
C  2.839839  1.114590  -3.375614
C  1.848147  0.127548  -3.549374
C  3.322103  2.850172  -1.835240
C  2.402921  2.421630  -2.884400
C  3.558860  3.417462  0.510010
C  2.786978  3.395657  -0.654647
C  2.977908  2.461504  2.548061
C  2.869076  3.689703  1.772592
C  1.798321  0.357420  2.864836
C  1.794771  1.755895  2.800748
C  0.616661  -1.737274  3.076626
C  0.606483  -0.341344  3.033976
C  -0.541686  -3.809074  2.628086
C  -0.577544  -2.434313  2.876092
C  -0.986988  -4.580667  0.494262
C  -1.611876  -4.327906  1.785227
C  -0.575954  -3.363788  -1.560339
C  -1.454917  -3.825143  -0.587968
C  -0.118645  -1.790782  -3.230501
C  -1.046952  -2.574416  -2.590231
C  0.489182  0.471906  -3.486770
C  -0.493768  -0.492734  -3.483038
C  1.043495  2.554834  -2.598491
C  0.115520  1.771365  -3.240115
C  1.451273  3.814416  -0.599178
C  0.572887  3.347526  -1.570808
C  1.612084  4.334494  1.772402
C  0.986272  4.578227  0.480189
C  0.580470  2.447498  2.870672
C  0.542159  3.820147  2.618797
C  -0.602900  0.355083  3.034918
C  -0.613773  1.750995  3.073853
C  -1.791700  -1.742992  2.804932
C  -1.794895  -0.344307  2.867067
C  -2.868209  -3.682324  1.783320
C  -2.974948  -2.451416  2.554597
C  -2.788427  -3.398104  -0.643802
C  -3.559724  -3.414474  0.520356
C  -2.405610  -2.430898  -2.879540
C  -3.323586  -2.854638  -1.827216
C  -1.850194  -0.139889  -3.548401
C  -2.842419  -1.123125  -3.372451
C  -1.185118  2.236955  -3.459274
C  -2.213046  1.213057  -3.659570
C  -0.805260  3.531746  -1.444971
C  -1.688220  3.204661  -2.489529
C  -0.468625  4.616563  0.691910
C  -1.290927  3.911035  -0.201471
C  -0.706500  4.367268  2.110994
C  -1.826733  2.445169  3.199897
C  -1.900805  3.730349  2.509357
C  -2.972849  0.363978  2.634948
C  -3.072593  1.729006  2.920245
C  -4.096764  -1.688713  2.014775
C  -4.011984  -0.294036  1.989621
C  -4.455756  -2.283843  0.733822
C  -4.324514  -1.799936  -1.660677
C  -4.674607  -1.410843  -0.354843
C  -4.036052  -0.738384  -2.628522
C  -3.390707  1.607849  -2.890250
C  -4.122590  0.606602  -2.215946
C  -3.046948  2.809813  -2.130586
C  -2.564816  3.474318  0.172188
C  -3.393868  2.841322  -0.769274
C  -2.950877  3.576053  1.511398
C  -3.856783  2.543675  1.997865
C  -4.906703  0.431096  1.203676
C  -4.701684  1.874486  1.085411
C  -5.169439  -0.112741  -0.119275
C  -4.887119  0.944580  -1.085123
C  -4.536575  2.154029  -0.339314
