100
# Created by libgraph from Fullerene (http://tinyurl.com/fullerenes)
C  3.833398  0.442636  2.621795
C  4.434869  1.384884  1.688240
C  5.101111  0.610155  0.656575
C  5.139815  -0.785115  1.097533
C  4.438482  -0.867054  2.381500
C  4.978730  -1.801662  0.141554
C  4.213381  -3.004376  0.480619
C  3.669040  -3.156696  1.774694
C  3.721596  -2.034084  2.713503
C  4.704874  0.928460  -0.654300
C  4.459869  -0.091635  -1.583451
C  4.665074  -1.443241  -1.242227
C  3.625818  2.439468  1.239695
C  3.968307  3.140139  0.085065
C  4.467498  2.280334  -0.981618
C  2.443794  0.492647  2.772553
C  1.757042  1.681828  2.512918
C  2.408709  2.714660  1.852521
C  2.381393  -1.879836  3.278716
C  1.721690  -0.664662  3.057697
C  2.358378  -3.793421  1.946430
C  1.626820  -3.093839  2.985523
C  3.371396  -3.332928  -0.668348
C  2.015060  -3.581890  -0.423012
C  1.594020  -4.059307  0.808638
C  3.701188  -2.409995  -1.752839
C  3.920735  0.218391  -2.843894
C  2.944280  -0.743095  -3.343416
C  2.664392  -1.842128  -2.502522
C  3.710548  2.594872  -2.191902
C  3.409079  1.566627  -3.105867
C  2.984269  4.059943  -0.484911
C  2.645742  3.523669  -1.801711
C  1.792931  3.959804  1.689939
C  1.949940  4.537296  0.355911
C  0.392807  1.789208  2.776344
C  -0.266310  3.012385  2.657548
C  0.383132  4.105345  2.060573
C  0.327551  -0.604818  2.995560
C  -0.333918  0.625264  2.994372
C  0.259424  -2.992689  2.668034
C  -0.398699  -1.768400  2.778044
C  0.326716  -4.650722  0.937216
C  -0.385503  -4.092555  2.073010
C  1.033591  -3.231674  -1.346850
C  -0.285768  -3.693634  -1.202898
C  -0.604080  -4.603410  -0.187774
C  1.346351  -2.284484  -2.309857
C  1.814511  0.004946  -3.883185
C  0.539213  -0.432535  -3.529411
C  0.305222  -1.654648  -2.959767
C  2.038668  1.422272  -3.594545
C  1.315566  3.129464  -1.996534
C  1.022375  2.096424  -2.889696
C  0.603751  4.600569  -0.202731
C  0.287745  3.681903  -1.213646
C  -0.326952  4.657694  0.921094
C  -1.634588  3.106970  2.974175
C  -2.362595  3.799776  1.927630
C  -1.591122  4.065450  0.790246
C  -1.728650  0.680597  3.059969
C  -2.390089  1.894178  3.272170
C  -1.763273  -1.666104  2.519854
C  -2.451102  -0.477613  2.776144
C  -1.794495  -3.951009  1.699890
C  -2.408601  -2.705166  1.861850
C  -1.950514  -4.534824  0.369022
C  -1.314606  -3.142369  -1.988632
C  -2.644993  -3.531421  -1.793850
C  -2.983650  -4.060977  -0.474057
C  -1.015173  -2.111464  -2.882311
C  -0.537454  0.414338  -3.547539
C  -1.812389  -0.019441  -3.891893
C  -2.031825  -1.435738  -3.592498
C  -0.293612  1.630561  -2.967421
C  -1.032012  3.214847  -1.356537
C  -1.335645  2.264130  -2.319718
C  -2.012377  3.576771  -0.438379
C  -3.672972  3.162915  1.757994
C  -4.214329  3.005757  0.464675
C  -3.368558  3.329986  -0.681784
C  -3.728527  2.044639  2.701850
C  -3.840654  -0.432925  2.620724
C  -4.445070  0.876027  2.373396
C  -3.628488  -2.433716  1.248851
C  -4.439601  -1.378694  1.689081
C  -3.966342  -3.138569  0.092764
C  -3.707151  -2.601975  -2.187387
C  -4.463927  -2.282894  -0.978141
C  -3.403573  -1.577550  -3.104770
C  -2.940654  0.730769  -3.350441
C  -3.916389  -0.228836  -2.847803
C  -2.656460  1.829193  -2.512731
C  -3.693806  2.402465  -1.764034
C  -4.978544  1.801904  0.128201
C  -4.660451  1.438159  -1.253104
C  -5.142748  0.789315  1.087930
C  -5.102908  -0.607457  0.652869
C  -4.701925  -0.930904  -0.654115
C  -4.456821  0.084147  -1.588643
