100
# Created by libgraph from Fullerene (http://tinyurl.com/fullerenes)
C  3.470493  -1.225674  2.768014
C  3.739311  0.210903  2.859845
C  4.684919  0.557163  1.812490
C  5.109596  -0.685563  1.162622
C  4.436142  -1.802217  1.833720
C  5.267090  -0.698980  -0.233071
C  4.797097  -1.850230  -1.006691
C  4.296989  -2.993574  -0.350017
C  4.084829  -2.955076  1.098852
C  4.313176  1.673431  1.038471
C  4.468345  1.650066  -0.352099
C  4.958943  0.504702  -1.004197
C  2.637022  1.072371  2.993883
C  2.777645  2.451736  2.765096
C  3.689628  2.767597  1.673722
C  2.136483  -1.629939  2.635071
C  1.115533  -0.796553  3.064512
C  1.367416  0.546265  3.207465
C  2.785920  -3.579902  1.360111
C  1.792416  -2.795164  1.958329
C  3.165450  -3.726252  -0.929296
C  2.376516  -4.283780  0.152492
C  4.042231  -1.332453  -2.144217
C  2.740536  -1.806765  -2.318494
C  2.420311  -3.105654  -1.938104
C  4.247079  0.106333  -2.208248
C  4.037907  2.733097  -1.137392
C  3.353586  2.327054  -2.357237
C  3.169107  0.947057  -2.501536
C  3.080175  3.825283  0.860950
C  3.272788  3.823931  -0.534638
C  1.568306  3.265896  2.591247
C  1.731163  4.067308  1.380812
C  0.274058  1.369573  3.364272
C  0.351614  2.587796  2.732243
C  -0.195056  -1.253004  3.195953
C  -1.147297  -0.525480  3.924224
C  -0.902824  0.913974  3.974354
C  0.430156  -3.087548  1.775773
C  -0.557367  -2.361886  2.442178
C  1.006886  -4.332890  -0.154254
C  0.059596  -4.002039  0.801249
C  1.277354  -3.736333  -2.457751
C  0.592100  -4.553637  -1.470182
C  1.712717  -0.970099  -2.759780
C  0.454770  -1.517206  -3.027807
C  0.262185  -2.911348  -3.100888
C  1.906335  0.416305  -2.796710
C  2.217149  3.205788  -2.569066
C  0.966488  2.654628  -2.875838
C  0.809315  1.269773  -2.989221
C  2.145500  4.102726  -1.428688
C  0.650588  4.046764  0.476675
C  0.862811  4.235332  -0.885542
C  -0.793756  2.991782  2.075360
C  -0.641245  3.705725  0.899648
C  -2.128120  1.593080  3.548255
C  -2.044141  2.541824  2.512240
C  -2.555367  -0.729756  3.596847
C  -3.170118  0.580949  3.393764
C  -1.906082  -2.655054  2.234592
C  -2.870984  -1.736031  2.668365
C  -1.253235  -4.466708  0.687458
C  -2.273445  -3.794232  1.500287
C  -0.849175  -4.509538  -1.738546
C  -1.775381  -4.609643  -0.668109
C  -1.050501  -3.436581  -2.710757
C  -0.642719  -0.655470  -3.083689
C  -1.912947  -1.186101  -2.933859
C  -2.017447  -2.470042  -2.420318
C  -0.472734  0.726695  -3.149025
C  -0.140767  3.515710  -2.896983
C  -1.459861  2.947859  -3.143211
C  -1.597179  1.561095  -3.235737
C  -0.229945  4.405761  -1.752015
C  -1.759860  3.928600  0.094588
C  -1.594517  4.305643  -1.239077
C  -3.206572  2.942615  1.843810
C  -3.048510  3.653078  0.575140
C  -4.068492  0.700843  2.312624
C  -4.257809  1.945488  1.680691
C  -4.142111  -1.753979  2.089047
C  -4.722413  -0.442171  1.815033
C  -3.468638  -3.660730  0.673407
C  -4.377452  -2.608159  0.927781
C  -3.018580  -3.837796  -0.698615
C  -3.039331  -2.704494  -1.508398
C  -3.051336  -0.414768  -3.170104
C  -4.162309  -0.679183  -2.263479
C  -4.017395  -1.720401  -1.329976
C  -2.895478  1.029033  -3.282982
C  -2.391630  3.570427  -2.210334
C  -3.430654  2.769909  -1.685772
C  -3.887409  1.662492  -2.422101
C  -3.940785  3.029735  -0.398259
C  -4.677115  1.963739  0.281482
C  -5.123848  -0.420923  0.412941
C  -4.830488  0.721476  -0.354000
C  -4.785681  -1.718007  -0.161471
C  -4.627661  0.602604  -1.740199
