100
# Created by libgraph from Fullerene (http://tinyurl.com/fullerenes)
C  3.603670  -1.289639  2.297981
C  3.367642  -2.654037  1.891423
C  3.931789  -2.817455  0.741062
C  4.636109  -1.595488  0.335408
C  4.497512  -0.622237  1.389952
C  4.629122  -1.184610  -0.926233
C  4.575685  0.376928  -1.074713
C  4.938159  1.349961  -0.145235
C  4.594539  0.755119  1.110270
C  2.811804  -2.964227  0.053974
C  2.563023  -2.409545  -0.885695
C  3.650401  -1.794615  -1.736868
C  2.114435  -3.179637  2.065762
C  1.482794  -4.295542  1.519909
C  1.816621  -3.869065  0.260870
C  2.623465  -0.424812  2.251449
C  1.680114  -0.967936  2.574877
C  1.353057  -2.123488  2.185389
C  3.738856  1.617797  1.837930
C  2.716661  0.864553  2.171514
C  4.312877  2.671453  0.079006
C  3.485700  2.743897  1.279347
C  3.664778  0.753238  -1.942291
C  2.845583  1.507873  -1.076703
C  3.106687  2.625902  -0.466533
C  3.132307  -0.594855  -2.135888
C  1.294273  -2.272546  -1.410047
C  1.086025  -1.404940  -2.034171
C  1.912238  -0.454195  -1.871070
C  1.014255  -4.198702  -0.816491
C  0.659926  -3.332687  -1.545131
C  0.076604  -4.228435  1.025073
C  -0.257620  -4.064543  -0.312213
C  0.001795  -2.203080  1.982801
C  -0.668653  -3.253732  1.386006
C  0.989131  -0.437719  3.439897
C  -0.382380  -0.589161  3.401042
C  -0.743550  -1.329525  2.589149
C  1.746564  1.377504  2.600594
C  1.101441  0.942784  3.442839
C  2.097312  2.911764  1.269232
C  1.337120  2.400921  2.040258
C  1.975726  3.379250  -0.895600
C  1.406522  3.293348  0.142885
C  1.687660  1.756686  -1.711377
C  1.522458  2.779069  -2.534115
C  1.740753  3.927053  -1.998432
C  1.409497  0.608319  -1.970030
C  0.166337  -1.527954  -2.927327
C  -0.148244  -0.451411  -3.389701
C  0.558030  0.672332  -3.127331
C  -0.341845  -3.491529  -2.400246
C  -0.553589  -2.425106  -3.283401
C  -1.582725  -3.988157  -0.874351
C  -1.645351  -3.756897  -2.228124
C  -2.001045  -3.501806  1.128736
C  -2.635099  -4.155884  0.041130
C  -2.187481  -1.358223  2.162214
C  -2.687161  -2.448916  1.325091
C  -1.134187  0.342560  2.836292
C  -2.505901  0.737736  2.678342
C  -3.110033  -0.308775  2.347543
C  -0.206333  1.184764  3.160140
C  0.191991  2.754046  1.851765
C  -0.630821  2.313331  2.646134
C  0.077148  3.744956  -0.092881
C  -0.478145  3.586920  0.929160
C  0.521446  4.688654  -1.980330
C  -0.826340  4.278108  -1.144784
C  0.270396  2.784925  -2.949748
C  -0.416499  3.770214  -2.436646
C  -0.343815  1.635816  -3.435085
C  -1.456722  -0.146316  -3.509959
C  -1.451545  1.157837  -3.065672
C  -1.979330  -2.073730  -3.263907
C  -2.048463  -0.954991  -2.872662
C  -2.608403  -2.755970  -2.472960
C  -3.765998  -3.247895  -0.380549
C  -3.366266  -2.296485  -1.309563
C  -4.105944  -2.580362  0.830152
C  -4.523363  -0.350523  1.967284
C  -4.774831  -1.399771  0.906107
C  -3.034260  1.946709  2.937616
C  -4.335991  2.003394  2.089300
C  -4.611074  0.800500  1.470562
C  -1.934022  2.798415  2.787473
C  -1.733366  2.887116  0.522274
C  -2.631500  3.157693  1.567835
C  -2.158454  3.039480  -1.015028
C  -1.470144  3.258255  -1.415938
C  -2.975519  3.463470  -1.209984
C  -1.744145  1.746415  -1.883320
C  -2.635361  -0.361616  -1.615104
C  -2.655763  0.918333  -1.313319
C  -3.486377  -1.078921  -1.055970
C  -4.492735  -0.486011  -0.199031
C  -4.132429  0.659446  0.227740
C  -4.074828  2.823985  1.112678
C  -3.636026  2.569428  -0.154016
C  -3.408365  1.335448  -0.395695
