100
# Created by libgraph from Fullerene (http://tinyurl.com/fullerenes)
C  4.923036  0.245140  1.362746
C  5.089384  1.118427  0.214794
C  5.056913  0.268415  -0.964945
C  5.183472  -1.127626  -0.533758
C  5.131672  -1.139662  0.928234
C  4.527212  -2.134211  -1.271612
C  3.915472  -3.271565  -0.575242
C  3.914868  -3.314503  0.833335
C  4.464812  -2.188886  1.592290
C  4.066937  0.612052  -1.886655
C  3.273383  -0.392795  -2.447050
C  3.633540  -1.748316  -2.361681
C  4.309281  2.296659  0.210293
C  3.958971  2.892415  -1.014105
C  3.811777  1.974722  -2.139233
C  3.835414  0.526263  2.190021
C  3.519695  1.858379  2.488638
C  3.816852  2.813152  1.424089
C  3.483314  -1.831889  2.612428
C  3.011066  -0.515409  2.609379
C  2.720247  -3.771320  1.547575
C  2.498130  -2.904429  2.690342
C  2.688109  -3.632603  -1.289639
C  1.508734  -3.834424  -0.547983
C  1.561325  -4.068347  0.822509
C  2.567488  -2.748695  -2.443673
C  2.039842  -0.037713  -2.985858
C  1.109261  -1.010811  -3.301260
C  1.290367  -2.250896  -2.724611
C  2.577242  2.317305  -2.838583
C  1.664003  1.287700  -3.066608
C  2.848584  3.846108  -1.063459
C  2.021060  3.518984  -2.221588
C  2.730666  3.793615  1.378131
C  2.183830  4.168456  0.134918
C  2.188283  2.163225  2.999059
C  1.763041  3.430637  2.408177
C  1.682033  -0.225098  2.912330
C  1.268515  1.107958  2.996295
C  1.138461  -2.588162  2.844893
C  0.741770  -1.256229  2.987640
C  0.401510  -4.453596  1.516489
C  0.186156  -3.614093  2.683691
C  0.247830  -3.672475  -1.138119
C  -0.913949  -4.139883  -0.525995
C  -0.877940  -4.547521  0.812407
C  0.148545  -2.888465  -2.274884
C  -0.042813  -0.701538  -4.040447
C  -1.196121  -1.575532  -3.813945
C  -1.087992  -2.610580  -2.864661
C  0.311583  1.547619  -3.241601
C  -0.505531  0.684532  -3.988229
C  0.634462  3.582994  -1.991010
C  -0.217352  2.598201  -2.508103
C  0.915080  4.792526  0.087326
C  0.141750  4.567696  -1.128598
C  0.406972  3.561752  2.064113
C  0.006451  4.587479  1.207859
C  -0.094656  1.379112  2.930913
C  -0.526477  2.602861  2.458114
C  -0.614898  -0.935326  3.050026
C  -1.027435  0.385408  3.189882
C  -1.231283  -3.259957  2.737793
C  -1.569212  -1.906648  2.810313
C  -1.912023  -3.978294  1.665415
C  -2.145057  -4.069325  -1.201738
C  -3.262458  -3.692380  -0.344646
C  -2.931197  -3.303527  0.962322
C  -2.246332  -3.268885  -2.422238
C  -2.371284  -0.728153  -3.647633
C  -3.286363  -1.102469  -2.643321
C  -3.458311  -2.461652  -2.337227
C  -1.932131  0.665661  -3.677903
C  -1.571892  2.565760  -2.183181
C  -2.354216  1.497631  -2.631017
C  -1.275821  4.520426  -0.771265
C  -2.098364  3.510558  -1.300542
C  -1.357031  4.565345  0.677915
C  -1.892542  2.779109  2.238826
C  -2.274507  3.655297  1.228640
C  -2.376109  0.697100  3.437825
C  -2.830106  1.988368  2.925842
C  -2.854427  -1.472898  2.502414
C  -3.372115  -0.306612  3.075482
C  -3.531362  -2.162507  1.506167
C  -4.167966  -2.832592  -1.113474
C  -4.923983  -1.837831  -0.454830
C  -4.721180  -1.665464  0.975226
C  -3.952945  -0.129927  -1.883336
C  -4.983368  -0.493558  -1.011878
C  -3.517598  1.195748  -1.927429
C  -3.408992  3.373345  -0.801980
C  -4.173107  2.196219  -1.200208
C  -3.532152  3.516422  0.636820
C  -4.141504  1.789044  2.299656
C  -4.459058  2.493833  1.121724
C  -4.480250  0.365698  2.402870
C  -5.113134  -0.295147  1.328216
C  -5.336369  0.421180  0.072157
C  -4.967486  1.773888  -0.047572
