100
# Created by libgraph from Fullerene (http://tinyurl.com/fullerenes)
C  3.631729  -2.127378  2.434201
C  3.577023  -3.298863  1.570921
C  4.117052  -2.844756  0.294531
C  4.997037  -1.708542  0.564700
C  4.684515  -1.244076  1.917586
C  5.221199  -0.780895  -0.472230
C  5.238466  0.652933  -0.177259
C  4.932515  1.109191  1.119408
C  4.629343  0.141137  2.180143
C  3.194839  -2.730464  -0.750235
C  3.368682  -1.741332  -1.728711
C  4.518279  -0.947849  -1.742316
C  2.396119  -4.080356  1.588314
C  1.832262  -4.440252  0.296908
C  2.043885  -3.531099  -0.740879
C  2.414080  -1.534957  2.773241
C  1.235187  -2.294136  2.742794
C  1.249834  -3.649004  2.385623
C  3.482190  0.654442  2.925322
C  2.341667  -0.158801  3.018753
C  4.024921  2.246912  1.285350
C  3.242012  2.029628  2.494899
C  4.654921  1.345927  -1.330305
C  3.616894  2.262212  -1.122009
C  3.320441  2.709915  0.162945
C  4.447690  0.359620  -2.384589
C  2.331455  -1.478376  -2.625484
C  2.434265  -0.454078  -3.583563
C  3.441899  0.580993  -3.349609
C  1.049116  -3.324502  -1.693475
C  1.132333  -2.171439  -2.462989
C  0.448104  -4.860812  0.520979
C  -0.476237  -4.854044  -0.551694
C  -0.063756  -4.178300  -1.777597
C  0.038762  -4.198368  1.755378
C  0.015695  -1.642814  2.930803
C  -1.148539  -2.193689  2.450038
C  -1.074016  -3.345250  1.679071
C  1.081817  0.414348  3.221479
C  -0.028870  -0.362934  3.442168
C  1.906299  2.446475  2.390623
C  0.893532  1.757901  3.011391
C  2.207448  3.538036  0.329860
C  1.520735  3.452225  1.526805
C  2.791568  2.661754  -2.184787
C  1.930669  3.775892  -2.063724
C  1.729046  4.315996  -0.722876
C  2.740705  1.866595  -3.339759
C  1.196829  0.209846  -3.998946
C  1.395215  1.654965  -3.856878
C  -0.031624  -1.612399  -2.943991
C  0.025301  -0.331793  -3.456703
C  -1.271616  -3.620453  -2.403640
C  -1.248863  -2.262032  -2.750761
C  -1.860314  -4.433269  -0.325266
C  -2.420437  -4.056320  -1.613179
C  -2.066995  -3.535180  0.720960
C  -2.341589  -1.487130  2.613153
C  -3.379179  -1.738456  1.716185
C  -3.211690  -2.724489  0.733498
C  -1.192836  0.186610  3.996531
C  -2.435089  -0.466919  3.579078
C  -0.347256  2.360924  3.241985
C  -1.382564  1.634442  3.866030
C  0.394838  4.236859  1.791987
C  -0.593640  3.642505  2.706880
C  0.346049  4.799497  -0.615424
C  -0.315937  4.796944  0.644428
C  0.618988  3.660621  -2.686024
C  -0.367669  4.250964  -1.766766
C  0.364132  2.387011  -3.228708
C  -1.082503  0.452179  -3.220264
C  -0.880960  1.795089  -3.008950
C  -2.425527  -1.500279  -2.779523
C  -2.340351  -0.123500  -3.018747
C  -3.597516  -3.270364  -1.590364
C  -3.644637  -2.093265  -2.445695
C  -4.136118  -2.822721  -0.310904
C  -4.523459  -0.935984  1.736833
C  -5.226105  -0.756230  0.468517
C  -5.008160  -1.678854  -0.573777
C  -3.436028  0.576282  3.352998
C  -4.443951  0.367182  2.387036
C  -2.726447  1.857497  3.351078
C  -1.905229  3.769260  2.085985
C  -2.772495  2.657496  2.200705
C  -1.702085  4.321400  0.750520
C  -1.502632  3.476246  -1.502739
C  -2.189698  3.557404  -0.305770
C  -1.894352  2.479538  -2.375284
C  -3.478678  0.688916  -2.920859
C  -3.229996  2.060416  -2.483769
C  -4.692696  -1.208397  -1.923816
C  -4.628234  0.177707  -2.177949
C  -5.234097  0.679291  0.181770
C  -4.924711  1.141402  -1.111942
C  -4.646671  1.361388  1.338780
C  -3.603948  2.272388  1.137053
C  -3.302148  2.726825  -0.144198
C  -4.009432  2.274176  -1.271299
