100
# Created by libgraph from Fullerene (http://tinyurl.com/fullerenes)
C  4.655791  -1.452857  1.579630
C  5.079667  -0.078610  1.363532
C  5.506317  0.045616  -0.025404
C  5.333030  -1.258609  -0.670515
C  4.880373  -2.209065  0.346308
C  4.831678  -1.334671  -1.980929
C  3.879386  -2.393040  -2.338549
C  3.508239  -3.368217  -1.381738
C  4.007712  -3.257650  -0.004978
C  5.208943  1.227934  -0.721264
C  4.665305  1.153160  -2.078712
C  4.449522  -0.107727  -2.687628
C  4.263360  0.908164  1.941849
C  4.027771  2.119446  1.275283
C  4.535555  2.326325  -0.022360
C  3.460636  -1.629080  2.285993
C  3.157223  -0.753320  3.349381
C  3.624365  0.619493  3.160489
C  2.902369  -3.567688  0.901622
C  2.539194  -2.587957  1.852643
C  2.114821  -3.828670  -1.301763
C  1.821056  -4.139481  0.099797
C  2.842601  -1.791331  -3.175379
C  1.502732  -2.035749  -2.832332
C  1.145501  -3.061223  -1.969581
C  3.185430  -0.380923  -3.375226
C  3.632688  2.184699  -2.189284
C  2.361822  1.776971  -2.598321
C  2.153130  0.537971  -3.177426
C  3.665529  3.003327  -0.973951
C  3.215548  3.111263  1.860405
C  2.383488  3.861292  0.923667
C  2.449372  3.441947  -0.422041
C  2.607256  1.539439  3.676291
C  2.403808  2.787530  3.037330
C  1.788473  -0.683643  3.859376
C  1.443275  0.732089  4.042833
C  1.213776  -2.456216  2.280819
C  0.848640  -1.468221  3.178960
C  0.517825  -3.777800  0.460185
C  0.212531  -3.165167  1.638288
C  -0.209823  -3.158344  -1.611087
C  -0.515923  -3.778232  -0.436343
C  0.492259  -1.146348  -3.195609
C  -0.853768  -1.469219  -3.161985
C  -1.214016  -2.456725  -2.262410
C  0.826649  0.165061  -3.359260
C  1.228451  2.521915  -2.281076
C  -0.002387  2.325674  -2.906236
C  -0.201663  1.091427  -3.497365
C  1.270770  3.308344  -1.161237
C  1.050615  4.023977  1.515917
C  -0.055932  3.778788  0.679109
C  0.066525  3.776537  -0.685080
C  1.038979  3.267882  2.769825
C  0.204765  1.103320  3.500801
C  0.002881  2.338637  2.908622
C  -0.501516  -1.134749  3.189847
C  -0.823274  0.178317  3.367506
C  -1.148732  -3.056096  1.970497
C  -1.505705  -2.029522  2.829664
C  -1.825478  -4.139801  -0.103195
C  -2.118556  -3.827804  1.297084
C  -2.542923  -2.589546  -1.853339
C  -2.907682  -3.566838  -0.905884
C  -1.789128  -0.682870  -3.853738
C  -3.158275  -0.750066  -3.349085
C  -3.462452  -1.628659  -2.287724
C  -1.442265  0.732453  -4.040635
C  -1.035327  3.264878  -2.766496
C  -2.400882  2.789749  -3.035267
C  -2.604874  1.542083  -3.673861
C  -1.047435  4.025165  -1.513085
C  -1.271347  3.326530  1.155872
C  -2.447786  3.451689  0.419385
C  -2.383454  3.866813  -0.923936
C  -1.226834  2.526883  2.267325
C  -2.148381  0.541572  3.165019
C  -2.355873  1.781182  2.590123
C  -2.845421  -1.794618  3.170175
C  -3.182034  -0.382076  3.367907
C  -3.512384  -3.368494  1.375927
C  -3.882417  -2.394195  2.332871
C  -4.012736  -3.256136  -0.000146
C  -4.658975  -1.448758  -1.583721
C  -4.884523  -2.206098  -0.350849
C  -3.623296  0.623232  -3.159341
C  -4.262233  0.910324  -1.941020
C  -5.080780  -0.074294  -1.365015
C  -3.214028  3.114565  -1.859732
C  -4.026737  2.122289  -1.275898
C  -3.663385  3.005674  0.975328
C  -4.533424  2.328962  0.022933
C  -3.630151  2.183497  2.189590
C  -4.447689  -0.108792  2.684360
C  -4.662773  1.152443  2.077620
C  -4.833104  -1.334259  1.977026
C  -5.335439  -1.256173  0.667198
C  -5.507016  0.049013  0.023870
C  -5.207396  1.230085  0.720948
