100
# Created by libgraph from Fullerene (http://tinyurl.com/fullerenes)
C  4.581754  -0.280199  1.951146
C  5.082659  0.213673  0.676818
C  5.021711  -0.892819  -0.272887
C  4.533886  -2.070440  0.441423
C  4.411642  -1.729490  1.854432
C  3.495592  -2.768755  -0.184066
C  2.429255  -3.275758  0.570313
C  2.529287  -3.341960  1.965064
C  3.407799  -2.368765  2.609517
C  4.499225  -0.631651  -1.552489
C  3.961474  -1.689211  -2.317982
C  3.500412  -2.861353  -1.579409
C  4.618819  1.483167  0.284445
C  4.510816  1.801325  -1.081019
C  4.443619  0.691437  -2.033823
C  3.564233  0.469589  2.546344
C  3.618582  1.863541  2.497287
C  4.187446  2.400510  1.267340
C  2.547415  -1.527308  3.432192
C  2.454622  -0.177359  3.082687
C  1.300838  -3.385891  2.746510
C  1.304363  -2.250824  3.653313
C  1.227870  -3.621232  -0.068147
C  0.049088  -3.743108  0.681794
C  0.088645  -3.587127  2.071903
C  2.306700  -3.378762  -2.235242
C  1.186411  -3.727156  -1.463159
C  2.947056  -1.377126  -3.318224
C  1.975099  -2.471869  -3.319929
C  3.381994  0.986942  -2.988479
C  2.486220  -0.057840  -3.284907
C  3.526655  2.805239  -1.483401
C  2.812633  2.288752  -2.644487
C  3.320959  3.488191  0.833864
C  2.778817  3.393262  -0.451218
C  2.409631  2.623963  2.797835
C  2.407052  3.798284  1.934591
C  1.241238  0.516027  3.160432
C  1.217262  1.896498  2.919212
C  0.084688  -1.563384  3.614976
C  0.048768  -0.190559  3.355539
C  -1.102598  -3.481444  2.803357
C  -1.091661  -2.321348  3.676754
C  -1.182265  -3.899304  0.027882
C  -2.372094  -3.628244  0.717727
C  -2.382925  -3.495981  2.109978
C  -0.010107  -4.044105  -2.129424
C  -1.219319  -4.229685  -1.333135
C  0.610018  -2.160911  -3.417061
C  -0.339640  -3.179761  -3.251421
C  1.118378  0.199596  -3.424983
C  0.200057  -0.833237  -3.516581
C  1.419149  2.380582  -2.598931
C  0.643513  1.495555  -3.312697
C  1.453836  3.789328  -0.665153
C  0.761077  3.255617  -1.749074
C  1.161264  4.401718  1.665413
C  0.811829  4.607941  0.266598
C  -0.008026  2.529421  2.686663
C  -0.045046  3.873599  2.293428
C  -1.179294  0.452667  3.156057
C  -1.191673  1.784570  2.735679
C  -2.366811  -1.632640  3.546040
C  -2.378216  -0.265820  3.254332
C  -3.214061  -2.436194  2.673391
C  -3.554745  -3.392780  0.009542
C  -4.410638  -2.336107  0.544702
C  -4.066928  -1.754450  1.782384
C  -2.337282  -3.695330  -2.109853
C  -3.492421  -3.237712  -1.440038
C  -1.752823  -2.829224  -3.127926
C  -1.154598  -0.510018  -3.535883
C  -2.050177  -1.464738  -3.063008
C  -0.627088  1.874138  -3.760035
C  -1.585174  0.782439  -3.890093
C  -0.613399  3.475088  -1.919472
C  -1.283747  2.972016  -3.049232
C  -0.645157  4.701680  0.180216
C  -1.325428  4.089832  -0.888871
C  -1.170939  4.308686  1.477174
C  -2.374777  2.338914  2.242768
C  -2.293936  3.473335  1.438187
C  -3.606152  0.330310  2.939785
C  -3.603788  1.707344  2.455369
C  -4.500259  -0.447920  2.092850
C  -4.705540  -1.415253  -0.546801
C  -4.613833  -0.039593  -0.275414
C  -4.922184  0.423441  1.004897
C  -4.026578  -1.908774  -1.737332
C  -3.187956  -1.015524  -2.404038
C  -2.833137  1.219517  -3.270715
C  -3.409588  0.359689  -2.324665
C  -2.698933  2.633471  -2.919335
C  -2.726491  3.988578  -0.834194
C  -3.411489  3.145133  -1.814783
C  -3.283085  3.700366  0.478299
C  -4.570020  1.794515  1.361496
C  -4.351052  2.719800  0.317621
C  -4.128885  0.858455  -1.237583
C  -4.279393  2.238299  -1.060964
