100
# Created by libgraph from Fullerene (http://tinyurl.com/fullerenes)
C  5.016042  -0.028915  0.837313
C  5.085470  0.753700  -0.385603
C  4.837783  -0.162718  -1.486521
C  4.930824  -1.533129  -0.977361
C  5.035723  -1.452234  0.480162
C  4.141224  -2.534971  -1.576115
C  3.534866  -3.580216  -0.743928
C  3.613945  -3.494719  0.664880
C  4.354294  -2.389200  1.283710
C  3.757882  0.191691  -2.296473
C  2.839607  -0.788977  -2.679963
C  3.162846  -2.152852  -2.595073
C  4.402684  1.990232  -0.380853
C  3.923314  2.524081  -1.590510
C  3.555761  1.547702  -2.610946
C  4.105834  0.414265  1.798964
C  3.954935  1.794515  2.021614
C  4.134008  2.635360  0.840776
C  3.556654  -1.886694  2.400213
C  3.278480  -0.508673  2.440561
C  2.415598  -3.731664  1.479823
C  2.421014  -2.787315  2.590613
C  2.259921  -3.953360  -1.361983
C  1.114158  -4.010882  -0.554983
C  1.196203  -3.878608  0.814797
C  2.072809  -3.125109  -2.544918
C  1.549421  -0.389594  -3.029971
C  0.527620  -1.327237  -3.117157
C  0.777656  -2.621253  -2.714305
C  2.254890  1.928473  -3.149292
C  1.246596  0.959509  -3.141440
C  2.886394  3.557074  -1.564068
C  1.895022  3.226977  -2.585381
C  3.110545  3.682746  0.866493
C  2.413517  4.001106  -0.314168
C  2.770205  2.275015  2.728782
C  2.283501  3.470490  2.049632
C  2.098627  -0.038640  3.018021
C  1.817679  1.312571  3.051362
C  1.178284  -2.193976  2.876249
C  1.113413  -0.928472  3.413006
C  -0.014964  -3.705419  1.479553
C  -0.027273  -2.764724  2.493240
C  -0.172603  -4.028799  -1.107924
C  -1.275426  -4.537186  -0.419227
C  -1.183576  -4.334219  1.024132
C  -0.330566  -3.328209  -2.282873
C  -0.784184  -0.950103  -3.440492
C  -1.792128  -1.912390  -3.608127
C  -1.564145  -3.183359  -2.921165
C  -0.096688  1.319920  -3.109205
C  -1.097118  0.407299  -3.439810
C  0.560298  3.449302  -2.210150
C  -0.442385  2.553621  -2.591523
C  1.185962  4.696682  -0.230993
C  0.262475  4.502937  -1.340494
C  0.890243  3.604973  1.880163
C  0.408515  4.573628  0.997267
C  0.492903  1.661779  3.254423
C  -0.001066  2.706897  2.487936
C  0.004343  -0.536304  4.180744
C  -0.323496  0.884302  4.089593
C  -1.233966  -2.272215  2.996824
C  -1.237155  -1.291214  4.004283
C  -2.444665  -3.760150  1.485118
C  -2.423163  -2.673774  2.382212
C  -2.609167  -4.119655  -0.858633
C  -3.286305  -3.555262  0.310046
C  -2.750814  -3.484373  -2.116479
C  -3.166924  -1.506723  -3.341904
C  -3.622929  -2.313097  -2.209941
C  -2.412609  0.847835  -3.630740
C  -3.472423  -0.129158  -3.379617
C  -1.786398  2.814701  -2.334085
C  -2.802637  2.105962  -2.990897
C  -1.101403  4.581264  -0.819805
C  -2.079057  3.693249  -1.299353
C  -1.006286  4.561005  0.630640
C  -1.369734  2.746130  2.217021
C  -1.860375  3.644198  1.264564
C  -1.763719  1.000940  3.878608
C  -2.211894  1.788122  2.802757
C  -2.342792  -0.337634  4.028390
C  -3.589566  -1.918376  2.559833
C  -3.517517  -0.668543  3.322838
C  -3.908712  -2.301314  0.201577
C  -4.389073  -1.684825  1.365154
C  -3.970046  -1.636964  -1.031109
C  -4.275795  0.418001  -2.293373
C  -4.304420  -0.272924  -1.073045
C  -4.041793  1.861872  -2.258604
C  -3.300471  3.592608  -0.623309
C  -4.259544  2.572963  -1.060054
C  -3.188387  3.541578  0.825413
C  -3.466920  1.550337  2.231594
C  -4.010288  2.432943  1.287635
C  -4.153590  0.363460  2.509487
C  -4.728612  -0.271661  1.331278
C  -4.588735  0.415934  0.115664
C  -4.646486  1.818030  0.128989
