100
# Created by libgraph from Fullerene (http://tinyurl.com/fullerenes)
C  4.432721  0.306705  1.983228
C  4.348598  1.695074  1.538485
C  5.032996  1.795794  0.254748
C  5.453781  0.444226  -0.132290
C  5.214200  -0.447322  1.004787
C  5.216096  -0.011958  -1.440114
C  4.804679  -1.402505  -1.661198
C  4.763749  -2.313310  -0.582192
C  4.924252  -1.812476  0.783248
C  4.507604  2.682093  -0.708822
C  4.195168  2.176602  -2.047572
C  4.479860  0.832785  -2.382639
C  3.098755  2.324936  1.665008
C  2.770791  3.427037  0.880893
C  3.436037  3.619149  -0.337357
C  3.253442  -0.278358  2.444790
C  2.242580  0.500462  2.983836
C  2.104379  1.786556  2.480133
C  3.893092  -2.452608  1.604871
C  2.990194  -1.624171  2.268041
C  3.726539  -3.352232  -0.537800
C  3.287429  -3.531511  0.833503
C  3.681330  -1.388040  -2.593505
C  2.558113  -2.160820  -2.263744
C  2.676412  -3.276706  -1.450371
C  3.436602  -0.001566  -2.981148
C  2.890168  2.723756  -2.417174
C  1.858492  1.813513  -2.658187
C  2.124788  0.467729  -2.890520
C  2.560946  3.797896  -1.482090
C  1.681118  4.252784  1.235148
C  0.894971  4.658412  0.080328
C  1.217825  3.969350  -1.096344
C  0.901803  2.457837  2.664225
C  0.730735  3.779382  2.243128
C  1.322714  -0.060750  3.886526
C  0.040434  0.628920  4.000509
C  -0.172353  1.718471  3.143532
C  1.734968  -2.085800  2.661273
C  1.057491  -1.488691  3.733394
C  1.891313  -3.743966  0.921826
C  1.123216  -3.043369  1.861183
C  1.653301  -4.237113  -1.420639
C  1.266063  -4.542311  -0.052588
C  1.270059  -1.764946  -2.617426
C  0.197592  -2.660654  -2.538101
C  0.412191  -3.985084  -2.145653
C  1.046597  -0.424663  -2.884881
C  0.528895  2.199767  -2.528035
C  -0.500530  1.405038  -2.985406
C  -0.262541  0.043161  -2.984955
C  0.204511  3.297707  -1.771760
C  -0.518974  4.715393  0.471002
C  -1.503798  4.167760  -0.371191
C  -1.142961  3.586459  -1.578048
C  -0.613584  4.171961  1.818046
C  -1.436987  2.018604  2.643417
C  -1.666134  3.251338  2.015836
C  -1.009518  -0.383959  4.052474
C  -2.182414  -0.191706  3.303794
C  -2.417367  1.024777  2.646685
C  -0.384029  -1.684197  3.837208
C  -0.267790  -3.185711  1.909676
C  -1.011422  -2.516365  2.893675
C  -0.192116  -4.672630  -0.014794
C  -0.920331  -3.889545  0.892577
C  -0.659281  -4.628194  -1.398603
C  -1.113344  -2.195168  -2.712185
C  -2.196209  -3.066291  -2.560962
C  -1.978290  -4.202819  -1.668672
C  -1.338624  -0.829369  -2.903621
C  -1.754400  1.961777  -3.263212
C  -2.881536  1.035347  -3.223676
C  -2.631747  -0.301780  -2.861813
C  -2.113726  3.159400  -2.503313
C  -2.816298  4.060121  0.102383
C  -3.829212  3.422789  -0.744965
C  -3.494959  3.002355  -2.049278
C  -2.923048  3.517729  1.445582
C  -3.578006  1.203430  1.888554
C  -3.935627  2.468668  1.409213
C  -3.048305  -1.283151  3.123686
C  -4.162243  -1.133771  2.195391
C  -4.323270  0.082405  1.523041
C  -2.413424  -2.569264  2.873202
C  -2.298895  -3.718566  0.716649
C  -3.093934  -3.188057  1.739800
C  -2.868287  -3.989153  -0.531502
C  -3.494254  -2.488787  -2.221289
C  -3.921615  -3.071812  -0.956433
C  -3.649273  -1.099968  -2.339159
C  -3.991351  1.717413  -2.555682
C  -4.889345  0.961233  -1.778134
C  -4.787633  -0.499016  -1.803237
C  -4.615751  2.539552  0.118096
C  -5.176554  1.356174  -0.399223
C  -5.166081  0.136345  0.410772
C  -4.210016  -2.326259  1.354620
C  -4.448555  -2.152670  -0.024458
C  -5.133644  -1.007033  -0.486067
