100
# Created by libgraph from Fullerene (http://tinyurl.com/fullerenes)
C  4.417586  -2.667614  0.702307
C  4.440285  -2.671719  -0.747011
C  5.064635  -1.430839  -1.193553
C  5.512628  -0.706314  -0.000019
C  5.052592  -1.441008  1.182037
C  5.514832  0.697065  0.003504
C  5.068058  1.422955  1.196748
C  4.494962  0.723732  2.279305
C  4.499534  -0.742021  2.275143
C  4.494513  -0.730324  -2.276748
C  4.502275  0.735355  -2.272456
C  5.057908  1.433026  -1.178943
C  3.190303  -3.039460  -1.256402
C  2.528181  -2.193401  -2.141615
C  3.209335  -1.173297  -2.827258
C  3.184673  -3.053993  1.241770
C  2.542377  -4.197411  0.739915
C  2.550417  -4.170783  -0.713348
C  3.223291  -1.200336  2.823622
C  2.530446  -2.210587  2.132281
C  3.209813  1.169111  2.827654
C  2.444507  -0.021414  3.198044
C  4.447501  2.665755  0.749799
C  3.197214  3.035626  1.257055
C  2.532866  2.191234  2.141856
C  4.426750  2.661649  -0.699517
C  3.227016  1.195903  -2.823068
C  2.534668  2.206023  -2.131550
C  3.195737  3.043557  -1.240442
C  2.448256  0.018560  -3.202291
C  1.136292  -2.288315  -2.207475
C  0.411324  -1.169619  -2.584095
C  1.092861  0.010731  -2.848698
C  1.190271  -4.467744  -1.158392
C  0.470022  -3.428697  -1.757236
C  1.163360  -4.492412  1.130239
C  0.506484  -5.084098  -0.025900
C  1.138078  -2.314260  2.204249
C  0.465770  -3.451464  1.747332
C  1.089634  -0.014069  2.836474
C  0.412487  -1.195369  2.577304
C  1.141682  2.288577  2.206388
C  0.414959  1.170580  2.579820
C  2.558742  4.166723  0.711808
C  1.199342  4.467015  1.156851
C  0.477381  3.429871  1.756613
C  2.550318  4.189291  -0.741431
C  1.142634  2.310930  -2.205223
C  0.471615  3.447907  -1.747830
C  1.171669  4.487031  -1.131774
C  0.416250  1.193310  -2.581780
C  -0.984762  -1.189786  -2.533978
C  -1.688238  0.011516  -2.594223
C  -0.977193  1.208712  -2.532369
C  -0.929945  -3.464899  -1.767694
C  -1.655120  -2.383841  -2.271188
C  -0.908894  -5.107259  0.004358
C  -1.588338  -4.524355  -1.139106
C  -0.935713  -3.482052  1.761513
C  -1.614118  -4.532903  1.142294
C  -0.982642  -1.210451  2.530707
C  -1.657146  -2.398244  2.265169
C  -0.980536  1.192788  2.532837
C  -1.685796  -0.008027  2.593967
C  -0.922505  3.468100  1.767559
C  -1.649172  2.388040  2.271271
C  0.516340  5.082366  0.023520
C  -0.899021  5.108224  -0.006094
C  -1.579215  4.528138  1.138414
C  -0.929705  3.480771  -1.761461
C  -1.605714  4.533685  -1.142930
C  -1.652944  2.397812  -2.264751
C  -3.083872  0.008145  -2.561572
C  -3.797921  1.209879  -2.451461
C  -3.047014  2.459408  -2.378112
C  -3.046593  -2.464405  -2.383098
C  -3.781665  -1.206807  -2.483427
C  -2.980868  -4.286238  -0.743085
C  -3.745711  -3.321730  -1.431429
C  -2.994794  -4.292155  0.721417
C  -3.051034  -2.455804  2.379439
C  -3.739992  -3.321634  1.423178
C  -3.081541  -0.002091  2.562419
C  -3.798000  -1.203211  2.452689
C  -3.040409  2.470690  2.384009
C  -3.777354  1.214102  2.484824
C  -2.972305  4.291853  0.743182
C  -3.738513  3.328964  1.432438
C  -2.986627  4.296662  -0.721323
C  -3.733890  3.327352  -1.422150
C  -4.807200  1.221196  -1.407014
C  -4.697255  2.494837  -0.695989
C  -4.771723  -1.195486  -1.419234
C  -4.856646  0.009791  -0.697651
C  -4.697033  -2.473684  -0.707717
C  -4.701699  -2.486381  0.697829
C  -4.808241  -1.212449  1.409142
C  -4.768252  1.204384  1.421347
C  -4.856035  -0.000848  0.699909
C  -4.691773  2.482373  0.709563
