100
# Created by libgraph from Fullerene (http://tinyurl.com/fullerenes)
C  3.832211  -1.817659  2.017984
C  3.465692  -3.098650  1.427733
C  3.936524  -3.092947  0.055373
C  4.815352  -1.931559  -0.115820
C  4.861819  -1.225268  1.166744
C  4.752869  -1.199469  -1.318158
C  4.883205  0.262988  -1.286118
C  5.081356  0.931831  -0.061465
C  5.045480  0.170218  1.187987
C  2.898781  -3.324985  -0.858998
C  2.720821  -2.443039  -1.926807
C  3.727880  -1.536161  -2.309186
C  2.141029  -3.529761  1.600915
C  1.635618  -4.557577  0.807676
C  1.968576  -4.358397  -0.594107
C  2.799042  -0.971718  2.441752
C  1.529790  -1.500268  2.685954
C  1.277724  -2.845265  2.446505
C  4.234625  0.945492  2.120966
C  3.004651  0.408770  2.510220
C  4.389663  2.200562  0.198378
C  4.210551  2.317064  1.636793
C  3.909286  0.817798  -2.223760
C  3.018373  1.804263  -1.761538
C  3.286086  2.521020  -0.596339
C  3.310463  -0.291508  -2.956462
C  1.460776  -2.375750  -2.523827
C  1.149189  -1.314905  -3.352313
C  1.943670  -0.197972  -3.230731
C  0.713861  -4.355132  -1.343311
C  0.457258  -3.262016  -2.177943
C  0.212920  -4.885657  0.911703
C  -0.370615  -4.672315  -0.412840
C  0.116433  -3.452345  2.936762
C  -0.495151  -4.447608  2.054989
C  0.476723  -0.665695  3.043113
C  -0.785975  -1.209671  3.298626
C  -0.954977  -2.594178  3.445370
C  1.947089  1.257628  2.857354
C  0.666390  0.715220  3.008922
C  3.206396  3.201449  2.085263
C  2.159843  2.643392  2.931928
C  2.370985  3.490254  -0.158287
C  2.499773  4.033747  1.120916
C  1.785763  2.007737  -2.392318
C  0.999628  3.117803  -2.109517
C  1.262130  3.833486  -0.943279
C  1.274840  1.008118  -3.195830
C  -0.006387  -1.313746  -4.147239
C  -0.583951  0.008183  -4.397224
C  0.033277  1.137130  -3.820599
C  -0.842403  -2.942650  -2.574446
C  -1.088006  -2.209918  -3.743198
C  -1.532620  -3.884000  -0.494139
C  -1.866032  -3.251531  -1.691683
C  -1.890426  -4.048978  1.893149
C  -2.317588  -3.625631  0.630626
C  -2.220720  -3.167958  3.006670
C  -1.900626  -0.364898  3.287487
C  -3.190075  -0.901928  3.301509
C  -3.327011  -2.300160  2.899890
C  -0.446006  1.549716  2.994044
C  -1.728285  1.016276  3.147177
C  0.980880  3.505436  2.795380
C  -0.275520  2.896872  2.689445
C  1.286124  4.504676  1.770879
C  0.356996  4.807666  -0.508274
C  0.251023  4.989866  0.939160
C  -0.101777  3.420453  -2.922981
C  -1.215881  4.110409  -2.277874
C  -0.998027  4.789753  -1.060735
C  -0.670260  2.351681  -3.747374
C  -2.009614  -0.077730  -4.113947
C  -2.521562  0.917864  -3.267323
C  -2.083325  2.241050  -3.420109
C  -2.349320  -1.476744  -3.845132
C  -3.177279  -2.839108  -1.933555
C  -3.375990  -1.779712  -2.924035
C  -3.478533  -2.846760  0.498302
C  -3.998224  -2.527660  -0.771433
C  -4.068599  -2.287218  1.641248
C  -4.235746  -0.146556  2.625094
C  -4.601951  -0.941011  1.455387
C  -2.842320  1.857755  3.037302
C  -4.050145  1.245004  2.496973
C  -1.360417  3.588972  2.156420
C  -2.670454  3.131597  2.349296
C  -1.126022  4.662133  1.294453
C  -1.901257  4.559835  0.065434
C  -2.363900  3.211080  -2.367004
C  -2.910819  2.722094  -1.172539
C  -2.799045  3.479228  -0.002800
C  -3.370510  0.571904  -2.213644
C  -3.481713  1.439246  -1.116421
C  -4.019332  -0.671099  -2.223960
C  -4.519504  -1.179281  -0.950540
C  -4.431001  -0.367086  0.185996
C  -4.224153  1.829347  1.172470
C  -4.074304  0.979836  0.069901
C  -3.496075  3.094934  1.153538
