100
# Created by libgraph from Fullerene (http://tinyurl.com/fullerenes)
C  2.722893  -2.721621  2.506608
C  3.838521  -1.958972  1.960488
C  4.161793  -2.526726  0.665020
C  3.383752  -3.755071  0.494815
C  2.569040  -3.933814  1.699375
C  2.841054  -4.042543  -0.772011
C  1.519960  -4.673586  -0.869466
C  0.787016  -4.970844  0.298243
C  1.302264  -4.547329  1.601850
C  4.166999  -1.559671  -0.347703
C  3.418913  -1.763323  -1.506383
C  2.945398  -3.044786  -1.841077
C  3.750504  -0.552926  1.992847
C  4.640779  0.209335  1.228191
C  4.816755  -0.334999  -0.107914
C  1.560273  -2.015470  2.820076
C  1.617455  -0.653744  3.103059
C  2.701430  0.082697  2.658404
C  0.186285  -3.950126  2.334154
C  0.312709  -2.619165  2.737444
C  -0.667046  -4.768861  0.321560
C  -1.048971  -4.284183  1.636315
C  0.815800  -4.062205  -1.993775
C  -0.497980  -3.602017  -1.786780
C  -1.277885  -4.104873  -0.748173
C  1.733793  -3.133094  -2.647692
C  3.042689  -0.644343  -2.261951
C  1.933311  -0.743592  -3.093649
C  1.197754  -1.915967  -3.072604
C  4.622441  0.750151  -1.065442
C  3.683323  0.586003  -2.088233
C  4.421089  1.649416  1.101456
C  4.496035  1.996800  -0.314028
C  2.643528  1.471484  2.754459
C  3.373959  2.224520  1.834572
C  0.538104  -0.001726  3.701477
C  0.678711  1.281603  4.233605
C  1.774152  2.082307  3.675115
C  -0.811797  -1.822005  2.949245
C  -0.712061  -0.608813  3.624212
C  -2.083477  -3.330193  1.586034
C  -2.012415  -2.168370  2.354691
C  -2.658483  -3.827650  -0.696610
C  -3.108709  -3.482154  0.642315
C  -1.008250  -2.539865  -2.538018
C  -2.321363  -2.117097  -2.387608
C  -3.227654  -2.833824  -1.605417
C  -0.151341  -1.798561  -3.333172
C  1.473573  0.358166  -3.825721
C  0.238239  0.301531  -4.509667
C  -0.613430  -0.858601  -4.260250
C  3.311556  1.702132  -2.849301
C  2.176624  1.571312  -3.763187
C  3.574923  2.963936  -0.775478
C  3.175776  2.965090  -2.130154
C  2.979194  3.532036  1.554246
C  2.984622  3.871174  0.134981
C  1.211152  3.369730  3.272784
C  1.737185  4.031990  2.141135
C  -0.513793  2.120558  4.277254
C  -0.238727  3.226642  3.368385
C  -1.864992  0.032814  4.089292
C  -1.778555  1.485814  4.228275
C  -3.082590  -1.274752  2.423322
C  -3.129356  -0.280171  3.413168
C  -4.106691  -2.416626  0.539348
C  -4.029149  -1.310527  1.400831
C  -4.216575  -2.053600  -0.867752
C  -2.670745  -0.880704  -2.928457
C  -3.636705  -0.124465  -2.264418
C  -4.302641  -0.675596  -1.158255
C  -1.978909  -0.380682  -4.044597
C  -0.595951  1.488722  -4.410643
C  -1.988999  1.067039  -4.252532
C  1.306062  2.716788  -3.550736
C  -0.070622  2.433032  -3.526583
C  1.865617  3.512968  -2.460666
C  1.644857  4.338423  -0.199686
C  1.060437  3.800763  -1.355656
C  0.848631  4.349927  1.026293
C  -0.975704  3.230856  2.181441
C  -0.396712  3.712005  1.008300
C  -2.750660  2.016386  3.282589
C  -2.251157  2.655914  2.144143
C  -3.765050  0.987192  3.067673
C  -4.823420  -0.186977  1.139998
C  -4.564166  1.033448  1.904243
C  -4.971300  0.176280  -0.264519
C  -3.852273  1.205631  -2.638059
C  -4.203955  2.125211  -1.562120
C  -4.771996  1.619377  -0.374114
C  -2.850589  1.868022  -3.471270
C  -0.891306  2.981929  -2.544061
C  -2.287075  2.949466  -2.663724
C  -0.293142  3.449567  -1.377612
C  -1.032273  3.448799  -0.202454
C  -2.978586  2.628693  0.947564
C  -2.377649  3.075213  -0.231326
C  -4.259001  2.066284  0.921138
C  -3.085057  3.051638  -1.441330
