100
# Created by libgraph from Fullerene (http://tinyurl.com/fullerenes)
C  3.627782  -0.794878  2.676176
C  4.450857  0.123209  1.890487
C  5.188398  -0.665558  0.908033
C  4.821476  -2.073296  1.099368
C  3.975153  -2.163000  2.291939
C  4.544552  -2.878991  -0.018881
C  3.495075  -3.902690  0.062528
C  2.795589  -4.113158  1.277817
C  3.005912  -3.184878  2.394779
C  5.335562  -0.140031  -0.394483
C  4.902307  -0.940416  -1.541028
C  4.490228  -2.276486  -1.354732
C  3.820358  1.294955  1.444557
C  4.245563  1.955076  0.303395
C  4.948210  1.248913  -0.675107
C  2.268379  -0.484417  2.798855
C  1.839771  0.835859  2.672248
C  2.654897  1.751630  2.044342
C  1.688469  -2.840458  2.935647
C  1.308586  -1.486653  2.910601
C  1.360552  -4.445359  1.260120
C  0.715884  -3.781438  2.388277
C  2.734586  -3.848133  -1.184755
C  1.342716  -3.878734  -1.087661
C  0.688108  -4.285345  0.047639
C  3.256042  -2.738408  -1.983211
C  4.078608  -0.071591  -2.383615
C  2.734508  -0.424271  -2.558147
C  2.339363  -1.755516  -2.392175
C  4.337477  1.308224  -1.989783
C  3.822868  3.274410  0.056534
C  3.371983  3.437455  -1.314014
C  3.284541  2.238657  -2.036237
C  2.207924  3.065709  1.884596
C  2.798549  3.878967  0.909373
C  0.548583  1.212370  3.019133
C  0.217491  2.549095  3.257363
C  1.083613  3.525749  2.597026
C  -0.041625  -1.105048  2.853046
C  -0.423021  0.229606  2.942607
C  -0.551940  -3.266251  2.058528
C  -0.988151  -2.045552  2.508833
C  -0.707137  -4.265947  -0.027546
C  -1.358568  -3.848515  1.103308
C  0.537664  -3.308765  -2.059164
C  -0.737526  -3.802537  -2.381003
C  -1.380160  -4.446229  -1.241294
C  0.982450  -2.080799  -2.490885
C  1.756239  0.561931  -2.768339
C  0.423149  0.199608  -2.929931
C  0.037661  -1.134933  -2.835320
C  2.085274  1.914111  -2.661406
C  2.225847  4.354001  -1.329604
C  1.181909  4.155951  -2.256401
C  1.186279  2.923508  -3.042564
C  1.873386  4.626244  0.064387
C  0.222507  4.418767  1.831661
C  0.525299  4.568359  0.465226
C  -1.172625  2.951660  3.035595
C  -1.163365  4.176451  2.236909
C  -1.759182  0.590943  2.775955
C  -2.078375  1.944900  2.663108
C  -2.345701  -1.726906  2.404482
C  -2.737146  -0.395191  2.567117
C  -2.748024  -3.829250  1.198398
C  -3.263940  -2.714275  1.994906
C  -2.814537  -4.110802  -1.260853
C  -3.511076  -3.889866  -0.046140
C  -1.705341  -2.854550  -2.927204
C  -3.023811  -3.188446  -2.382336
C  -1.315791  -1.505664  -2.906346
C  -0.545143  1.188881  -3.006603
C  -1.839532  0.819012  -2.675634
C  -2.272716  -0.498766  -2.798761
C  -0.204549  2.523261  -3.259301
C  -0.202528  4.406695  -1.852625
C  -1.065991  3.510750  -2.610802
C  -0.502554  4.566344  -0.488029
C  -2.206115  4.371307  1.307038
C  -1.850527  4.632111  -0.088175
C  -3.271571  2.267358  2.024163
C  -3.357065  3.459925  1.295298
C  -4.079047  -0.043204  2.384672
C  -4.327497  1.335977  1.979846
C  -4.496993  -2.252082  1.364798
C  -4.903414  -0.913563  1.544225
C  -4.556399  -2.862097  0.032236
C  -3.988702  -2.161491  -2.283195
C  -4.832508  -2.061841  -1.089748
C  -3.635218  -0.797061  -2.674095
C  -2.649736  1.746925  -2.053898
C  -3.821572  1.300181  -1.459546
C  -4.455562  0.128210  -1.893439
C  -2.193897  3.058019  -1.900797
C  -2.778476  3.884091  -0.930138
C  -3.806600  3.291093  -0.074987
C  -4.936677  1.270919  0.664201
C  -4.234611  1.975071  -0.319856
C  -5.332935  -0.117406  0.393639
C  -5.193005  -0.651707  -0.905221
