100
# Created by libgraph from Fullerene (http://tinyurl.com/fullerenes)
C  4.807252  -0.279846  1.544858
C  5.141358  0.494995  0.359940
C  5.064999  -0.412267  -0.773444
C  4.976935  -1.783384  -0.266378
C  4.829787  -1.703101  1.187644
C  4.240591  -2.734493  -1.001830
C  3.452381  -3.750369  -0.294708
C  3.307239  -3.678474  1.110752
C  3.981906  -2.608886  1.856089
C  4.179247  0.004296  -1.766669
C  3.258962  -0.905212  -2.287598
C  3.463312  -2.290039  -2.160857
C  4.529212  1.762440  0.233503
C  4.348253  2.322210  -1.047714
C  4.150969  1.362043  -2.126053
C  3.757656  0.204500  2.330039
C  3.616939  1.591904  2.511225
C  4.025062  2.417126  1.375535
C  3.032554  -2.072780  2.829628
C  2.803020  -0.683644  2.832501
C  1.985433  -3.871302  1.721473
C  1.848736  -2.929554  2.827708
C  2.276993  -4.050174  -1.116944
C  1.017595  -4.067219  -0.500697
C  0.885909  -3.961835  0.865614
C  2.313008  -3.185106  -2.288256
C  2.069987  -0.404753  -2.819675
C  0.988760  -1.264539  -2.986971
C  1.089718  -2.588488  -2.616255
C  3.023754  1.824883  -2.928108
C  1.923564  0.970866  -3.033570
C  3.365814  3.389665  -1.231374
C  2.743241  3.207014  -2.542316
C  3.003708  3.446287  1.172081
C  2.539953  3.674741  -0.138046
C  2.348276  2.120536  3.009933
C  1.991456  3.287295  2.212274
C  1.564267  -0.168352  3.224811
C  1.328615  1.192789  3.225558
C  0.602459  -2.283997  2.911517
C  0.496646  -1.023263  3.452217
C  -0.409393  -3.739538  1.322662
C  -0.541306  -2.790101  2.315390
C  -0.168552  -4.008314  -1.241803
C  -1.377822  -4.512422  -0.756298
C  -1.517342  -4.318511  0.681121
C  -0.117949  -3.232162  -2.377340
C  -0.257599  -0.760766  -3.347965
C  -1.344115  -1.594842  -3.669395
C  -1.248253  -2.955914  -3.152335
C  0.640849  1.488327  -3.223427
C  -0.432816  0.601837  -3.187325
C  1.450703  3.745061  -2.743214
C  0.429811  2.870994  -3.310509
C  1.220684  4.099949  -0.369815
C  0.796501  4.455053  -1.650659
C  0.645427  3.366803  1.815282
C  0.293973  4.053810  0.667640
C  -0.001656  1.590130  3.273015
C  -0.359565  2.661679  2.472410
C  -0.709951  -0.601245  4.041157
C  -0.945259  0.838446  3.984018
C  -1.782937  -2.215064  2.575639
C  -1.937013  -1.267218  3.599375
C  -2.807686  -3.675969  0.926499
C  -2.825516  -2.496414  1.693433
C  -2.622671  -4.081289  -1.398162
C  -3.548664  -3.674935  -0.335443
C  -2.555091  -3.335565  -2.598781
C  -2.680351  -1.095743  -3.354010
C  -3.461849  -2.199139  -2.796789
C  -1.679975  1.056046  -2.818222
C  -2.730738  0.147323  -2.703133
C  -0.877492  3.343882  -2.839187
C  -1.808007  2.378784  -2.420069
C  -0.640481  4.454515  -1.919065
C  -1.002633  4.568987  0.532125
C  -1.523521  4.647321  -0.830863
C  -1.704546  2.932540  2.211751
C  -2.061267  4.007626  1.382928
C  -2.349240  1.061241  3.642221
C  -2.675405  2.041393  2.685575
C  -2.963270  -0.244804  3.416152
C  -3.822559  -1.532661  1.515632
C  -3.811385  -0.364346  2.297747
C  -4.484036  -2.651707  -0.577149
C  -4.762849  -1.692019  0.491853
C  -4.442874  -1.896376  -1.830454
C  -3.762834  0.458379  -1.818960
C  -4.724849  -0.498392  -1.490921
C  -2.808468  2.678236  -1.499248
C  -3.758144  1.701565  -1.170238
C  -2.776467  3.898358  -0.822196
C  -3.251320  3.852287  0.556479
C  -3.960344  2.044628  2.123280
C  -4.188384  2.862609  0.930800
C  -4.582471  0.740594  1.902251
C  -5.247664  -0.470386  -0.134559
C  -5.170528  0.751799  0.565776
C  -4.628367  1.933129  -0.102118
