100
# Created by libgraph from Fullerene (http://tinyurl.com/fullerenes)
C  4.074758  -0.720614  2.293700
C  4.078632  0.739103  2.288640
C  4.954814  1.190524  1.213323
C  5.362233  0.006465  0.455033
C  4.950139  -1.175238  1.214883
C  5.261822  0.009008  -0.946395
C  4.757595  -1.183285  -1.639183
C  4.489379  -2.371158  -0.918263
C  4.642181  -2.373540  0.538380
C  4.623805  2.388584  0.544546
C  4.491381  2.383676  -0.913337
C  4.745886  1.195852  -1.638892
C  2.848146  1.388885  2.430961
C  2.707958  2.718497  2.051451
C  3.555109  3.245534  1.071726
C  2.849817  -1.384152  2.432245
C  1.708594  -0.696127  2.839240
C  1.709470  0.697665  2.840259
C  3.596950  -3.238034  1.090980
C  2.722996  -2.717024  2.051010
C  3.290897  -3.166582  -1.226272
C  2.880077  -3.856919  -0.008106
C  3.780994  -0.733390  -2.624810
C  2.516250  -1.336183  -2.608542
C  2.282906  -2.529283  -1.945757
C  3.771154  0.729563  -2.624098
C  3.299792  3.174550  -1.243053
C  2.277361  2.534945  -1.945017
C  2.515582  1.343919  -2.610605
C  2.868725  3.879540  -0.040089
C  1.634235  3.482529  2.538175
C  1.038955  4.312394  1.503139
C  1.488820  4.027444  0.205838
C  0.532340  1.399369  3.123564
C  0.535339  2.799355  3.213826
C  0.536053  -1.404733  3.116551
C  -0.672895  -0.703396  3.185557
C  -0.671844  0.693194  3.187704
C  1.644803  -3.502325  2.498556
C  0.568999  -2.806174  3.199817
C  1.493721  -4.028891  0.207536
C  1.029222  -4.346998  1.487075
C  0.960520  -2.977123  -1.878201
C  0.565003  -3.728820  -0.790612
C  1.403662  -0.680946  -3.121403
C  0.229357  -1.340369  -3.440165
C  -0.002192  -2.541823  -2.790985
C  1.403116  0.683342  -3.113291
C  0.953635  2.982652  -1.877784
C  -0.010106  2.547758  -2.784548
C  0.228227  1.348165  -3.434245
C  0.552400  3.724335  -0.785232
C  -0.404820  4.375205  1.735210
C  -1.294572  4.191748  0.662087
C  -0.805863  4.008866  -0.629928
C  -0.696224  3.502073  2.864029
C  -1.882333  1.385646  3.123027
C  -1.864134  2.730979  2.748248
C  -1.881102  -1.400081  3.119689
C  -3.105705  -0.750239  3.299625
C  -3.097499  0.715026  3.313555
C  -0.677011  -3.497241  2.881575
C  -1.850904  -2.740333  2.739798
C  -0.411616  -4.359077  1.737983
C  -0.795991  -4.008767  -0.642334
C  -1.288362  -4.196439  0.650610
C  -1.226221  -3.196742  -2.932243
C  -1.657440  -3.961523  -1.756755
C  -0.733296  -0.716378  -4.245978
C  -2.108623  -1.176679  -4.062715
C  -2.361548  -2.400833  -3.397915
C  -0.746910  0.753413  -4.245275
C  -1.230265  3.217462  -2.901384
C  -2.356327  2.417096  -3.392244
C  -2.126311  1.186398  -4.053377
C  -1.685031  3.972201  -1.729049
C  -2.663757  4.049220  0.931524
C  -3.542689  3.608681  -0.152709
C  -3.072673  3.592026  -1.481189
C  -2.990741  3.275782  2.121113
C  -4.200960  1.161437  2.466682
C  -4.105905  2.395317  1.792109
C  -4.207889  -1.177566  2.446881
C  -4.587652  0.000822  1.681115
C  -2.959431  -3.299792  2.088007
C  -4.088143  -2.419887  1.790317
C  -2.661910  -4.079637  0.894498
C  -3.051710  -3.602083  -1.495233
C  -3.539951  -3.609347  -0.173688
C  -3.341419  -2.431979  -2.318452
C  -2.866593  -0.003618  -3.633627
C  -3.400113  -0.002216  -2.338016
C  -3.627852  -1.218246  -1.678364
C  -3.342555  2.425415  -2.320195
C  -3.629700  1.212851  -1.677339
C  -4.241907  2.423376  0.337156
C  -4.071843  1.212126  -0.349412
C  -4.269685  -0.002630  0.318196
C  -4.234928  -2.428137  0.338884
C  -4.068661  -1.217418  -0.349324
