100
# Created by libgraph from Fullerene (http://tinyurl.com/fullerenes)
C  3.784044  -1.319453  2.393321
C  4.636213  -0.569321  1.482558
C  4.830015  -1.391664  0.303568
C  4.344897  -2.740032  0.602015
C  3.800986  -2.719140  1.961805
C  3.681936  -3.459241  -0.411041
C  2.569847  -4.349166  -0.059935
C  2.138430  -4.446456  1.278557
C  2.718845  -3.560342  2.290251
C  4.408722  -0.745343  -0.864919
C  3.518498  -1.387560  -1.725922
C  3.338322  -2.780326  -1.662971
C  4.284329  0.768504  1.229999
C  4.821650  1.426018  0.123605
C  4.785604  0.595392  -1.070127
C  2.539807  -0.765012  2.708964
C  2.334819  0.615685  2.598559
C  3.297958  1.403606  1.979397
C  1.608599  -2.983125  3.043578
C  1.462476  -1.591589  3.016803
C  0.706928  -4.561225  1.577040
C  0.411205  -3.766558  2.754564
C  1.559541  -4.241184  -1.111481
C  0.213673  -4.065589  -0.736133
C  -0.219351  -4.416285  0.538407
C  2.070272  -3.329241  -2.129645
C  2.718839  -0.603051  -2.567257
C  1.538218  -1.143622  -3.069009
C  1.160239  -2.414037  -2.660904
C  4.096798  1.344840  -2.113888
C  3.030031  0.741203  -2.793311
C  4.316853  2.755462  -0.217522
C  3.784106  2.667266  -1.580280
C  3.199299  2.800190  2.001549
C  3.601172  3.474814  0.767602
C  1.119210  1.187612  2.980456
C  0.900938  2.552827  2.819438
C  1.942906  3.411044  2.448262
C  0.209687  -1.005489  3.175875
C  0.076693  0.361083  3.388792
C  -0.827393  -3.108632  2.647329
C  -0.929232  -1.758292  2.970745
C  -1.594682  -4.477561  0.825819
C  -1.915603  -3.775592  2.056655
C  -0.692914  -3.420494  -1.587197
C  -2.058072  -3.377100  -1.296176
C  -2.566493  -4.038092  -0.174193
C  -0.193611  -2.694433  -2.658224
C  0.668969  -0.377326  -3.855991
C  -0.597495  -0.873991  -4.223669
C  -1.021923  -2.142571  -3.636083
C  2.205565  1.542084  -3.597929
C  0.998482  0.948643  -4.166681
C  2.486580  3.147353  -1.828734
C  1.858477  2.846243  -3.050763
C  2.443011  4.244559  0.336928
C  1.787642  3.826870  -0.824735
C  1.611740  4.479130  1.515164
C  -0.409441  3.029178  2.910399
C  -0.757236  4.203114  2.241387
C  0.245293  4.800941  1.357635
C  -1.132541  0.882435  3.872926
C  -1.399171  2.285805  3.572795
C  -2.154680  -1.106312  2.941610
C  -2.346471  0.120247  3.590722
C  -3.148196  -3.013225  1.839069
C  -3.134025  -1.639855  2.119388
C  -3.672393  -3.399647  0.532584
C  -2.891546  -2.561081  -2.071343
C  -4.146678  -2.171303  -1.576789
C  -4.474783  -2.486909  -0.186265
C  -2.437091  -2.035071  -3.295879
C  -1.700663  0.065242  -4.099106
C  -2.840532  -0.656349  -3.540617
C  -0.101924  1.873498  -3.934448
C  -1.317902  1.288220  -3.532832
C  0.409586  2.995937  -3.155647
C  0.406493  3.991810  -0.944364
C  -0.259473  3.332800  -1.976124
C  -0.308917  4.721075  0.011807
C  -2.030032  4.195473  1.536008
C  -1.738515  4.432074  0.129350
C  -2.745698  2.375290  3.007578
C  -2.928106  3.152108  1.845123
C  -3.329316  1.033491  3.016890
C  -4.017555  -0.759065  1.499540
C  -4.009227  0.596764  1.864368
C  -4.821368  -1.216944  0.451462
C  -4.542508  -0.791792  -1.832155
C  -5.117133  -0.252786  -0.603787
C  -3.581254  -0.042963  -2.519629
C  -2.080064  1.845638  -2.496886
C  -3.291519  1.262424  -2.114288
C  -1.571773  2.916770  -1.761704
C  -2.322752  3.494832  -0.733901
C  -3.954602  2.834860  0.932776
C  -3.627780  3.060626  -0.468219
C  -4.607360  1.533555  1.015468
C  -4.961713  1.124366  -0.341956
C  -4.155733  1.942434  -1.245835
