100
# Created by libgraph from Fullerene (http://tinyurl.com/fullerenes)
C  4.721996  -1.266048  -0.761191
C  4.703857  -0.339437  -1.887146
C  4.681626  1.007361  -1.315464
C  4.957264  0.908344  0.112060
C  5.070514  -0.508310  0.443824
C  4.203158  1.763272  0.936139
C  3.772772  1.335647  2.200814
C  4.043171  0.026452  2.640275
C  4.611701  -0.942477  1.700746
C  3.652303  1.879667  -1.685626
C  3.494439  3.090590  -0.987894
C  3.819893  3.020014  0.433464
C  3.886020  -0.652982  -2.994792
C  2.973956  0.375867  -3.486693
C  2.728875  1.488813  -2.658318
C  3.691809  -2.208584  -0.675843
C  3.044280  -2.658108  -1.832635
C  3.153002  -1.922676  -3.022038
C  3.784591  -2.144190  1.758265
C  3.228428  -2.640131  0.566434
C  3.003658  -0.645960  3.412933
C  2.849578  -1.993761  2.867026
C  2.998411  2.182702  3.015204
C  1.963104  1.520102  3.802698
C  1.852973  0.123151  3.645718
C  2.846020  3.826224  1.172996
C  2.430051  3.411320  2.457241
C  2.243647  3.834739  -1.114945
C  1.834836  4.273873  0.214741
C  1.498716  2.151665  -2.702970
C  1.244048  3.244016  -1.895027
C  1.796064  -0.296281  -4.041723
C  0.554904  0.279091  -3.747454
C  0.451787  1.612043  -3.431859
C  1.917341  -1.727772  -3.769162
C  2.195030  -3.782241  -1.784238
C  0.992477  -3.654526  -2.593924
C  0.809666  -2.410117  -3.232179
C  2.119667  -3.495499  0.604102
C  1.786285  -4.302048  -0.482483
C  1.540215  -2.432642  2.632422
C  1.278921  -3.421110  1.703489
C  0.590107  -0.484372  3.589235
C  0.452131  -1.801643  3.201890
C  0.735086  2.307157  3.696959
C  -0.450054  1.602014  3.431851
C  -0.552976  0.269090  3.747095
C  1.004573  3.428821  2.805292
C  0.487465  4.022051  0.506860
C  0.090748  3.615975  1.765776
C  -0.091824  3.612747  -1.753097
C  -0.487078  4.021529  -0.494347
C  -0.737650  2.310606  -3.696580
C  -1.004937  3.428490  -2.798194
C  -0.593707  -0.473445  -3.598680
C  -1.855541  0.130200  -3.650769
C  -1.967411  1.525113  -3.803867
C  -0.447044  -1.789767  -3.208852
C  -0.128749  -4.203437  -1.824713
C  -1.272743  -3.410483  -1.707359
C  -1.534138  -2.423142  -2.638681
C  0.403448  -4.770911  -0.586645
C  0.130466  -4.209209  1.822563
C  -0.401292  -4.772045  0.581589
C  -0.807102  -2.417109  3.227029
C  -0.992427  -3.659813  2.590564
C  -1.797171  -0.299731  4.041399
C  -1.915718  -1.731289  3.764868
C  -1.504283  2.143076  2.709086
C  -2.733424  1.484980  2.665408
C  -2.977686  0.371091  3.488914
C  -1.241926  3.232812  1.899322
C  -1.835089  4.272240  -0.209379
C  -2.241625  3.829087  1.119530
C  -2.430514  3.412163  -2.452662
C  -2.845836  3.824992  -1.168079
C  -3.000713  2.185631  -3.012871
C  -3.004498  -0.643176  -3.414098
C  -4.043614  0.028108  -2.639323
C  -3.773274  1.337518  -2.198713
C  -2.847141  -1.990842  -2.868291
C  -2.115569  -3.487089  -0.607613
C  -3.228383  -2.639680  -0.570488
C  -3.783351  -2.142812  -1.760264
C  -1.782731  -4.300218  0.476032
C  -2.193400  -3.785763  1.778794
C  -3.151666  -1.926324  3.017160
C  -3.043560  -2.663504  1.827300
C  -3.887178  -0.657996  2.993179
C  -3.654955  1.874462  1.688974
C  -4.684483  1.004411  1.316337
C  -4.705987  -0.343137  1.886709
C  -3.493525  3.086871  0.992318
C  -3.819314  3.018239  -0.429002
C  -4.202688  1.762432  -0.932317
C  -4.611626  -0.942146  -1.701351
C  -5.071760  -0.509709  -0.444362
C  -4.958686  0.906476  -0.111444
C  -3.694782  -2.210967  0.672721
C  -4.724245  -1.268678  0.760304
