100
# Created by libgraph from Fullerene (http://tinyurl.com/fullerenes)
C  4.421053  0.031512  2.287194
C  4.928101  1.201174  1.576261
C  5.455436  0.734544  0.295115
C  5.452560  -0.731249  0.313419
C  4.922773  -1.162026  1.606358
C  5.141180  -1.452566  -0.851953
C  4.348881  -2.685306  -0.759392
C  3.931199  -3.167997  0.503957
C  4.213012  -2.375055  1.707831
C  5.143934  1.428436  -0.886588
C  4.752858  0.680318  -2.085429
C  4.744911  -0.736484  -2.068377
C  4.205044  2.408474  1.651823
C  3.943755  3.176365  0.428656
C  4.345406  2.659063  -0.825955
C  3.084901  0.034531  2.696968
C  2.391559  1.246493  2.824573
C  2.995934  2.469491  2.475637
C  3.017417  -2.403172  2.548758
C  2.397647  -1.174149  2.863053
C  2.586223  -3.741914  0.666439
C  2.125851  -3.430668  2.018298
C  3.393316  -2.682681  -1.865473
C  2.046896  -2.945628  -1.565541
C  1.662581  -3.505006  -0.358954
C  3.622293  -1.473009  -2.657517
C  3.633145  1.390337  -2.700703
C  2.481733  0.649903  -2.994968
C  2.484772  -0.732001  -2.982139
C  3.389967  2.615087  -1.936222
C  2.608784  3.771459  0.559040
C  1.666695  3.492318  -0.444012
C  2.053239  2.903586  -1.636700
C  2.128118  3.505873  1.912283
C  1.029187  1.223825  3.158461
C  0.267236  2.346925  2.966893
C  0.762651  3.224129  2.038668
C  1.033847  -1.133678  3.200113
C  0.385320  0.048375  3.479134
C  0.757027  -3.138946  2.107645
C  0.270612  -2.258471  3.026244
C  0.284498  -3.617874  -0.127704
C  -0.158630  -3.526983  1.163560
C  1.017487  -2.490692  -2.388043
C  -0.274485  -2.994168  -2.339690
C  -0.649930  -3.606024  -1.156661
C  1.238331  -1.344440  -3.091493
C  1.237304  1.263129  -3.132112
C  0.147408  0.645643  -3.728003
C  0.151180  -0.735491  -3.711192
C  1.023284  2.416322  -2.437269
C  0.287791  3.624613  -0.216449
C  -0.649848  3.576330  -1.236915
C  -0.267890  2.933972  -2.401553
C  -0.158973  3.564205  1.076999
C  -1.012081  2.476428  3.517997
C  -1.961533  3.194070  2.656220
C  -1.520498  3.617220  1.383942
C  -0.963060  0.041967  3.876128
C  -1.668923  1.255365  3.993373
C  -1.013846  -2.417663  3.553316
C  -1.648609  -1.182406  4.023007
C  -1.523625  -3.592398  1.456463
C  -1.980680  -3.138455  2.712444
C  -1.966505  -4.021491  -0.948518
C  -2.432828  -3.962144  0.447148
C  -1.187011  -2.711596  -3.368246
C  -2.602495  -2.775043  -2.998359
C  -2.994742  -3.425887  -1.801449
C  -0.972035  -1.465616  -4.118599
C  -0.964712  1.396463  -4.131576
C  -2.235335  0.667463  -4.197901
C  -2.246253  -0.750623  -4.180960
C  -1.199947  2.656353  -3.412284
C  -1.964096  3.994294  -1.006423
C  -2.987898  3.393724  -1.868387
C  -2.613801  2.707438  -3.050558
C  -2.451401  3.948882  0.381108
C  -3.219732  2.451970  2.663820
C  -3.908198  2.298246  1.444401
C  -3.705442  3.209617  0.385516
C  -3.043203  1.263583  3.503669
C  -3.027448  -1.182439  3.535900
C  -3.566245  0.031516  3.062975
C  -3.228347  -2.386112  2.722601
C  -3.685622  -3.213793  0.460461
C  -3.903340  -2.271514  1.492010
C  -3.945957  -2.769368  -0.906916
C  -3.160526  -1.450633  -3.276884
C  -3.717778  -0.726985  -2.212871
C  -4.217869  -1.409425  -1.095851
C  -3.160549  1.373297  -3.311157
C  -3.719117  0.677526  -2.229036
C  -3.955289  2.753441  -0.980045
C  -4.221315  1.387123  -1.127952
C  -4.750564  1.190114  1.253260
C  -4.933583  0.730281  -0.117557
C  -4.587375  0.012316  2.101259
C  -4.747442  -1.171919  1.260897
C  -4.937724  -0.723939  -0.112757
