100
# Created by libgraph from Fullerene (http://tinyurl.com/fullerenes)
C  3.775220  -0.643484  2.583610
C  4.396812  0.531838  1.991208
C  4.976875  0.121183  0.727122
C  4.960288  -1.340914  0.673816
C  4.333522  -1.815396  1.909667
C  4.666664  -1.969683  -0.551301
C  3.897567  -3.219338  -0.556259
C  3.434046  -3.770905  0.656571
C  3.601487  -3.016831  1.901063
C  4.468769  0.863090  -0.346589
C  3.927566  0.200753  -1.448529
C  4.216618  -1.155807  -1.684927
C  3.628903  1.705801  1.939856
C  4.018029  2.748503  1.100119
C  4.385041  2.263226  -0.220697
C  2.388401  -0.618098  2.778859
C  1.718045  0.606879  2.855833
C  2.407785  1.787775  2.599678
C  2.313106  -3.032411  2.587939
C  1.658647  -1.807638  2.783185
C  2.110884  -4.404383  0.716937
C  1.516238  -4.101639  2.005602
C  2.979324  -3.173848  -1.691325
C  1.626994  -3.492898  -1.465044
C  1.243061  -4.268897  -0.372974
C  3.241662  -1.941731  -2.433235
C  2.990176  0.879609  -2.239327
C  2.102291  0.138169  -3.011460
C  2.127798  -1.242420  -2.903271
C  3.586143  2.990675  -1.199969
C  2.855096  2.267986  -2.152088
C  3.125220  3.895634  0.945423
C  2.794099  3.983816  -0.479754
C  1.829453  3.030307  2.881858
C  2.110772  4.088693  1.911156
C  0.339226  0.649706  3.060689
C  -0.318994  1.879970  3.120144
C  0.397865  3.082556  3.186994
C  0.261225  -1.753195  2.868576
C  -0.390607  -0.540048  3.072549
C  0.126753  -3.931914  1.930271
C  -0.489320  -2.895744  2.612782
C  -0.064258  -4.796476  -0.294656
C  -0.623500  -4.708700  1.043823
C  0.621552  -2.930190  -2.253552
C  -0.708810  -3.271490  -2.069683
C  -1.091589  -4.302782  -1.208269
C  0.933366  -1.896417  -3.121478
C  1.101468  0.762231  -3.769002
C  0.102189  0.000287  -4.409712
C  0.030579  -1.419850  -4.080335
C  1.892394  2.943975  -2.917433
C  1.011235  2.160578  -3.780451
C  1.442392  4.090764  -0.851820
C  1.079887  3.916032  -2.199229
C  0.814323  4.558338  1.445739
C  0.456975  4.262042  0.127596
C  -0.161799  4.226462  2.478495
C  -1.709636  1.902759  2.985679
C  -2.362550  3.101736  2.699322
C  -1.534214  4.171240  2.155465
C  -1.785340  -0.512726  3.156041
C  -2.441675  0.711721  3.017778
C  -1.853519  -2.962128  2.906328
C  -2.514962  -1.706976  3.264124
C  -2.061324  -4.430266  0.944850
C  -2.701486  -3.659248  1.943832
C  -2.324755  -4.085927  -0.450440
C  -1.662104  -2.444214  -2.655153
C  -2.844928  -2.241360  -1.958237
C  -3.005162  -2.885580  -0.726191
C  -1.371296  -1.753025  -3.839040
C  -1.249952  0.538206  -4.350870
C  -2.180324  -0.571861  -4.142566
C  -0.346691  2.653598  -3.591706
C  -1.363406  1.681609  -3.551345
C  -0.317698  3.647846  -2.524844
C  -0.881906  4.028738  -0.196856
C  -1.180670  3.470072  -1.438743
C  -1.893884  4.255018  0.744934
C  -3.553995  3.016480  1.871827
C  -3.143895  3.510168  0.559848
C  -3.821760  0.734985  2.795946
C  -4.315331  1.832103  1.968148
C  -3.830766  -1.715527  2.632345
C  -4.461220  -0.490325  2.330523
C  -3.752142  -2.711565  1.574297
C  -3.761548  -2.244276  0.257761
C  -3.790414  -1.327920  -2.428402
C  -4.571361  -0.648130  -1.401748
C  -4.441084  -1.060988  -0.062357
C  -3.360878  -0.328891  -3.405315
C  -2.425599  1.789381  -2.646486
C  -3.557885  0.977119  -2.780278
C  -2.297716  2.642177  -1.547446
C  -3.224494  2.594954  -0.501813
C  -4.789448  1.218802  0.732306
C  -4.166770  1.562374  -0.473791
C  -4.904026  -0.218283  0.962384
C  -4.417346  0.784384  -1.614899
