100
# Created by libgraph from Fullerene (http://tinyurl.com/fullerenes)
C  4.099978  -1.122520  2.286603
C  4.088093  0.333492  2.411985
C  5.050995  0.865959  1.457794
C  5.453160  -0.238637  0.578191
C  4.973993  -1.490107  1.173806
C  5.403543  -0.064441  -0.815214
C  4.875832  -1.137985  -1.659992
C  4.592851  -2.407485  -1.109596
C  4.625561  -2.582822  0.342888
C  4.802940  2.147639  0.926980
C  4.784400  2.323500  -0.525685
C  4.943915  1.208422  -1.372870
C  2.819536  0.945906  2.484256
C  2.635718  2.257834  2.039727
C  3.695597  2.953660  1.454428
C  2.857033  -1.744281  2.334616
C  1.805397  -1.164590  3.001835
C  1.701336  0.201894  2.872668
C  3.467974  -3.410529  0.707272
C  2.554234  -2.868687  1.604395
C  3.450488  -3.180470  -1.611015
C  2.859260  -3.926041  -0.513117
C  3.890779  -0.541340  -2.556826
C  2.642125  -1.164750  -2.647366
C  2.521833  -2.530020  -2.425224
C  3.901574  0.902826  -2.350692
C  3.699004  3.258759  -0.815986
C  2.602616  2.785527  -1.539954
C  2.674355  1.558043  -2.194745
C  3.350462  3.924657  0.431190
C  1.352729  2.831401  2.059238
C  1.152134  4.133261  1.574772
C  2.092835  4.561353  0.542805
C  0.439891  0.769628  2.949552
C  0.255034  2.047869  2.437906
C  0.824565  -1.960777  3.602839
C  -0.429240  -1.288524  3.921145
C  -0.641596  -0.004574  3.387167
C  1.239003  -3.327321  1.694782
C  0.504790  -3.190893  2.884335
C  1.447777  -3.985862  -0.606401
C  0.639523  -3.738435  0.513449
C  1.393463  -3.222529  -2.886318
C  0.868132  -4.128166  -1.875945
C  1.473151  -0.428131  -2.839232
C  0.276562  -1.081305  -3.147343
C  0.258738  -2.461642  -3.399045
C  1.482494  0.940392  -2.583152
C  1.393658  3.483010  -1.495388
C  0.269625  2.988803  -2.154534
C  0.283335  1.661368  -2.586238
C  1.289355  4.599467  -0.665878
C  -0.191338  4.497990  1.104838
C  -0.067293  4.964255  -0.272336
C  -1.040275  2.474043  2.161989
C  -1.223491  3.587858  1.351734
C  -1.942406  0.462982  3.173530
C  -2.142367  1.712300  2.573367
C  -1.494964  -2.265087  3.718118
C  -2.805206  -1.808459  3.478979
C  -3.030946  -0.368185  3.458793
C  -0.951908  -3.283439  2.820445
C  -0.759432  -3.742108  0.423303
C  -1.532958  -3.404464  1.547519
C  -0.588307  -4.126705  -1.974276
C  -1.368615  -3.939745  -0.821757
C  -0.947319  -3.193962  -3.031275
C  -0.925273  -0.368456  -3.068931
C  -2.130803  -1.063933  -3.037486
C  -2.098793  -2.432886  -2.784013
C  -0.918329  1.016269  -2.889126
C  -0.879219  3.781329  -2.255353
C  -2.130411  3.108044  -2.607322
C  -2.119887  1.733273  -2.877962
C  -1.150241  4.686958  -1.143475
C  -2.428000  3.686576  0.667001
C  -2.441311  4.260909  -0.600144
C  -3.444453  2.142229  2.280445
C  -3.583956  3.093287  1.182789
C  -4.261219  -0.128211  2.708376
C  -4.478694  1.129829  2.117633
C  -3.568298  -2.351900  2.359544
C  -4.494159  -1.320879  1.901566
C  -2.882584  -3.071617  1.372188
C  -2.759281  -3.802442  -0.978201
C  -3.539763  -3.364988  0.170946
C  -3.182155  -3.021908  -2.129424
C  -3.347654  -0.383410  -3.133942
C  -4.435965  -0.903891  -2.308834
C  -4.312169  -2.184627  -1.733049
C  -3.349670  1.070719  -3.001314
C  -3.133355  3.494632  -1.622867
C  -4.012770  2.486992  -1.162710
C  -4.368830  1.436233  -2.028528
C  -4.449250  2.480853  0.179290
C  -4.929548  1.212570  0.729367
C  -4.631860  -1.197042  0.509776
C  -4.841091  0.063487  -0.072033
C  -4.479169  -2.343824  -0.289690
C  -4.895562  0.196742  -1.466353
