100
# Created by libgraph from Fullerene (http://tinyurl.com/fullerenes)
C  4.236088  -0.694238  2.267149
C  4.930075  0.300175  1.461403
C  5.035481  -0.287115  0.133794
C  4.915866  -1.741289  0.278645
C  4.457945  -2.000769  1.644453
C  4.394414  -2.489984  -0.795231
C  3.514836  -3.634226  -0.529703
C  3.109816  -3.921045  0.792665
C  3.551015  -3.052372  1.889396
C  4.301440  0.353285  -0.868729
C  3.680512  -0.399485  -1.861288
C  3.868795  -1.786242  -1.965336
C  4.532010  1.650209  1.590152
C  4.347975  2.430114  0.367203
C  4.095686  1.742204  -0.824191
C  2.932666  -0.395642  2.667726
C  2.516970  0.939430  2.736666
C  3.400939  1.985176  2.450181
C  2.381595  -2.767047  2.718706
C  2.007940  -1.423090  2.883992
C  1.715742  -4.292849  1.065359
C  1.315991  -3.684478  2.327672
C  2.518929  -3.690462  -1.603377
C  1.167750  -3.845178  -1.261020
C  0.787194  -4.172476  0.025528
C  2.771894  -2.582034  -2.513374
C  2.761165  0.245578  -2.681008
C  1.672184  -0.496979  -3.123894
C  1.642308  -1.869715  -2.943321
C  3.551857  2.431404  -1.924644
C  2.869632  1.624154  -2.930053
C  3.446018  3.538214  0.672808
C  2.551236  3.995845  -0.319242
C  2.731563  3.616492  -1.664667
C  2.837419  3.245652  1.962228
C  1.169739  1.215612  2.965329
C  0.638785  2.437189  2.604501
C  1.447061  3.412894  2.026892
C  0.673856  -1.081625  3.141234
C  0.311280  0.222201  3.408808
C  0.003357  -3.183178  2.316656
C  -0.324743  -2.013296  2.959915
C  -0.584074  -4.192280  0.283443
C  -0.982451  -3.735623  1.521152
C  0.144197  -3.526384  -2.161960
C  -1.127619  -4.107418  -2.072997
C  -1.508163  -4.501035  -0.719733
C  0.395598  -2.483705  -3.035509
C  0.541958  0.159716  -3.587642
C  -0.552319  -0.527071  -4.135285
C  -0.599108  -1.964910  -3.872976
C  1.628726  2.304050  -3.289451
C  0.472032  1.515714  -3.316589
C  1.552094  3.548118  -2.528088
C  1.421844  4.758133  0.062092
C  0.311416  4.818159  -0.879995
C  0.330274  3.894466  -1.928418
C  0.849833  4.499046  1.376231
C  -0.740070  2.594059  2.680910
C  -1.333721  3.466062  1.778864
C  -0.611357  4.543302  1.248747
C  -0.944439  0.516498  3.962088
C  -1.508357  1.798756  3.548095
C  -1.662277  -1.718685  3.250229
C  -1.999414  -0.495175  3.852857
C  -2.326360  -3.680802  1.887584
C  -2.674819  -2.595473  2.815338
C  -2.893623  -4.082449  -0.487768
C  -3.315921  -3.706121  0.813042
C  -2.255593  -3.390304  -2.666208
C  -3.250564  -3.208506  -1.603389
C  -1.986566  -2.328313  -3.563183
C  -1.871394  0.021355  -3.844876
C  -2.723466  -1.076334  -3.392315
C  -0.765405  2.012286  -2.938165
C  -1.886110  1.197223  -3.072986
C  -0.853587  3.244088  -2.291695
C  -0.929060  4.957703  -0.112085
C  -2.154633  4.511311  -0.656452
C  -2.100087  3.761529  -1.904481
C  -2.614907  3.164008  1.323317
C  -3.118465  3.807105  0.191566
C  -2.896187  1.573013  3.148845
C  -3.342132  2.136736  1.941025
C  -3.211560  0.161830  3.374425
C  -3.869617  -1.938392  2.301132
C  -3.961343  -0.531658  2.401469
C  -4.151700  -2.517205  0.991706
C  -3.664717  -1.905115  -1.302719
C  -4.268922  -1.619817  -0.072357
C  -3.401144  -0.854241  -2.182539
C  -2.984302  1.506288  -2.285093
C  -3.733656  0.447598  -1.788585
C  -3.235595  2.832673  -1.915252
C  -3.988106  3.030864  -0.678575
C  -4.472418  1.607161  1.304905
C  -4.688893  1.946581  -0.102916
C  -4.743188  0.181291  1.470394
C  -4.913649  -0.391169  0.139722
C  -4.719194  0.680450  -0.828880
