100
# Created by libgraph from Fullerene (http://tinyurl.com/fullerenes)
C  5.140695  0.146586  0.263946
C  5.007518  0.886236  -0.978409
C  4.642054  -0.079953  -2.002733
C  4.865157  -1.426434  -1.465035
C  5.178403  -1.284865  -0.043083
C  4.040738  -2.481181  -1.902817
C  3.594919  -3.506363  -0.948996
C  3.906664  -3.379151  0.419778
C  4.657652  -2.210750  0.883572
C  3.446254  0.202651  -2.667942
C  2.536451  -0.831951  -2.911173
C  2.920668  -2.181727  -2.793662
C  4.275181  2.091569  -0.896850
C  3.571692  2.560935  -2.023316
C  3.134438  1.541918  -2.975809
C  4.332263  0.581737  1.313193
C  4.194993  1.950996  1.550118
C  4.180209  2.764524  0.340077
C  3.967997  -1.685523  2.059447
C  3.580403  -0.342805  2.030547
C  2.887079  -3.667406  1.434431
C  2.976055  -2.663992  2.480870
C  2.238041  -3.907371  -1.321493
C  1.241194  -3.937108  -0.319808
C  1.580581  -3.970176  1.030468
C  1.883634  -3.180206  -2.537270
C  1.199626  -0.501060  -3.144584
C  0.222728  -1.482449  -3.076171
C  0.574098  -2.713484  -2.585903
C  1.761590  1.850729  -3.368822
C  0.813510  0.822924  -3.273456
C  2.465198  3.499266  -1.828255
C  1.375453  3.100391  -2.717093
C  3.124254  3.760315  0.498758
C  2.147887  3.845061  -0.502550
C  3.103211  2.408014  2.400862
C  2.665774  3.701180  1.888626
C  2.388380  0.085144  2.620526
C  2.120883  1.460451  2.716153
C  1.712048  -2.227755  2.906099
C  1.423241  -0.861775  2.986227
C  0.582184  -4.154181  2.009447
C  0.707050  -3.190087  3.092493
C  -0.112507  -3.782392  -0.649914
C  -1.117418  -3.853299  0.299041
C  -0.831483  -4.177327  1.623998
C  -0.438026  -3.349707  -1.915702
C  -1.133250  -1.202077  -3.303511
C  -2.091616  -2.226264  -3.287874
C  -1.740747  -3.354842  -2.431584
C  -0.548075  1.100879  -3.147295
C  -1.519295  0.130672  -3.366092
C  0.085690  3.156296  -2.166041
C  -0.916599  2.314875  -2.614414
C  0.831881  4.182631  -0.154664
C  -0.195190  3.943030  -1.060950
C  1.361421  4.128433  2.214514
C  0.538281  4.643171  1.130322
C  0.823483  1.884219  3.011603
C  0.488092  3.250998  2.988227
C  0.127627  -0.435343  3.293558
C  -0.170931  0.921408  3.202212
C  -0.628759  -2.738164  3.468978
C  -0.891662  -1.364353  3.547355
C  -1.588216  -3.452370  2.637679
C  -2.393897  -3.425741  -0.079999
C  -3.199879  -2.834438  0.891182
C  -2.700795  -2.705183  2.195579
C  -2.789550  -3.483991  -1.427796
C  -3.482157  -1.865535  -3.013099
C  -3.917580  -2.649599  -1.850759
C  -2.863097  0.500330  -3.491041
C  -3.866950  -0.512298  -3.141827
C  -2.260106  2.607332  -2.382298
C  -3.272819  1.766782  -2.883953
C  -1.505657  4.369206  -0.804376
C  -2.584338  3.659159  -1.508054
C  -0.861202  4.573016  1.559814
C  -1.898083  4.514965  0.593861
C  -0.893741  3.606687  2.654642
C  -1.496966  1.312497  3.144236
C  -1.766531  2.525615  2.532400
C  -2.223816  -0.949174  3.740396
C  -2.529204  0.463328  3.554606
C  -3.238387  -1.722959  3.037346
C  -4.438681  -2.285400  0.539650
C  -4.871675  -1.109059  1.286876
C  -4.241028  -0.796468  2.509488
C  -4.739049  -2.054466  -0.874361
C  -4.760475  0.084013  -2.144537
C  -5.154651  -0.657633  -1.013639
C  -4.358184  1.479914  -1.963392
C  -3.575576  3.265258  -0.518486
C  -4.124124  1.971048  -0.672801
C  -3.038160  3.612879  0.790091
C  -2.853626  2.555731  1.676074
C  -3.731542  0.555999  2.730631
C  -3.670443  1.426093  1.629372
C  -5.076222  -0.042047  0.311209
C  -4.322561  1.130791  0.433113
