100
# Created by libgraph from Fullerene (http://tinyurl.com/fullerenes)
C  4.553148  -0.215205  1.855325
C  5.182521  0.439165  0.720771
C  5.044603  -0.502536  -0.379908
C  4.919402  -1.840776  0.202662
C  4.629128  -1.658974  1.625785
C  4.249778  -2.837186  -0.533505
C  3.393540  -3.805673  0.161113
C  3.130261  -3.650412  1.540795
C  3.709859  -2.513376  2.264071
C  4.159727  -0.127330  -1.395989
C  3.400290  -1.101080  -2.044972
C  3.584014  -2.469684  -1.783186
C  4.878824  1.801258  0.516676
C  4.437032  2.211503  -0.813178
C  3.955698  1.230930  -1.693665
C  3.332361  0.308593  2.289848
C  3.058599  1.668321  2.099568
C  3.988844  2.481060  1.450196
C  2.639444  -1.895515  3.043777
C  2.350544  -0.540046  2.802392
C  1.767005  -3.837297  2.051067
C  1.509901  -2.816724  3.059525
C  2.287753  -4.147579  -0.738334
C  0.979919  -4.140733  -0.230483
C  0.736861  -4.021483  1.121997
C  2.439374  -3.362791  -1.955921
C  2.366025  -0.680242  -2.878603
C  1.254251  -1.508083  -2.995518
C  1.265693  -2.778470  -2.450228
C  3.189390  1.622476  -2.809076
C  2.394841  0.593056  -3.470352
C  3.584703  3.389416  -0.650882
C  2.403462  3.441123  -1.410120
C  2.355282  2.813464  -2.667032
C  3.488165  3.673168  0.781947
C  1.810824  2.195583  2.449056
C  1.561984  3.570427  2.338610
C  2.318141  4.265983  1.300835
C  1.051149  -0.039240  2.957190
C  0.782677  1.316063  2.785964
C  0.224057  -2.266500  2.965056
C  -0.004040  -0.920376  3.131021
C  -0.600117  -3.887200  1.496506
C  -0.853177  -3.014319  2.528361
C  -0.135767  -4.087192  -1.075915
C  -1.393111  -4.563227  -0.682565
C  -1.631787  -4.468860  0.753128
C  0.022995  -3.370335  -2.245920
C  0.067664  -1.001211  -3.505568
C  -1.037290  -1.816202  -3.787279
C  -1.045929  -3.112795  -3.111905
C  1.093248  1.170353  -3.803399
C  -0.034987  0.374711  -3.552624
C  1.049243  2.523383  -3.257985
C  1.252013  4.031091  -0.869211
C  0.017287  3.832481  -1.487093
C  -0.073911  2.877270  -2.495697
C  1.324450  4.720351  0.343884
C  0.171222  4.020678  2.236778
C  0.071307  4.896228  1.074169
C  -0.541558  1.762250  2.811284
C  -0.829115  3.053769  2.379418
C  -1.318891  -0.475698  3.292352
C  -1.587590  0.884249  3.134704
C  -2.145496  -2.773993  2.987663
C  -2.360527  -1.407962  3.472910
C  -2.977804  -3.924711  0.963875
C  -3.249399  -3.115685  2.093500
C  -2.573111  -4.036756  -1.367547
C  -3.447546  -3.460141  -0.340986
C  -2.397652  -3.352900  -2.592901
C  -2.359469  -1.220692  -3.621925
C  -3.166895  -2.129765  -2.820121
C  -1.262269  0.919665  -3.198774
C  -2.420260  0.137901  -3.254526
C  -1.278889  2.189957  -2.638449
C  -1.127350  4.498880  -1.028060
C  -2.424173  3.896179  -1.351799
C  -2.456179  2.712543  -2.100895
C  -1.156830  4.904326  0.372913
C  -2.127088  3.320062  1.957017
C  -2.338386  4.263577  0.954792
C  -2.912920  1.334290  3.175180
C  -3.199250  2.560585  2.437313
C  -3.685812  -0.994483  3.025972
C  -3.966878  0.376626  2.861168
C  -4.039981  -1.895914  1.935203
C  -3.834103  -2.116637  -0.480220
C  -4.160761  -1.351186  0.650785
C  -3.822160  -1.511319  -1.744113
C  -3.635014  0.671794  -2.806778
C  -4.374272  -0.232296  -1.937472
C  -3.658798  1.998462  -2.192717
C  -3.213519  3.843561  -0.127675
C  -3.988042  2.684177  0.110839
C  -4.458970  1.923463  -0.977416
C  -4.208071  2.241189  1.432606
C  -4.582490  0.840866  1.620497
C  -4.538150  -0.007053  0.504881
C  -4.802720  0.519337  -0.764459
