100
# Created by libgraph from Fullerene (http://tinyurl.com/fullerenes)
C  2.436921  -3.477620  2.033896
C  1.172249  -4.190155  1.848812
C  1.199365  -4.836125  0.546188
C  2.424884  -4.395550  -0.111897
C  3.302308  -3.825466  0.910622
C  2.249257  -3.681747  -1.300124
C  3.106019  -2.602477  -1.572517
C  4.307814  -2.443629  -0.881665
C  4.299998  -2.909533  0.499742
C  -0.025022  -4.778989  -0.156502
C  -0.033671  -4.586840  -1.551646
C  1.161854  -3.984748  -2.145422
C  -0.026849  -3.531970  2.153572
C  -1.235896  -4.180330  1.880979
C  -1.237892  -4.812825  0.569641
C  2.397462  -2.119239  2.360868
C  1.196984  -1.518048  2.722433
C  -0.016612  -2.203807  2.580710
C  4.536882  -1.728267  1.326101
C  3.534087  -1.320748  2.208961
C  4.965431  -1.134344  -0.914460
C  5.047750  -0.664319  0.466949
C  2.683229  -1.618932  -2.458055
C  3.486753  -0.527591  -2.809039
C  4.617324  -0.224053  -1.933465
C  0.724588  -2.915745  -3.035517
C  1.368967  -1.681339  -2.883781
C  -1.206252  -3.954449  -2.160508
C  -0.734755  -2.898306  -3.050631
C  -2.448196  -4.372564  -0.115123
C  -2.280509  -3.655101  -1.303162
C  -2.499961  -3.455385  2.023461
C  -3.347828  -3.802468  0.890737
C  -1.227101  -1.509240  2.722587
C  -2.432447  -2.101864  2.359381
C  1.202784  -0.173328  3.083473
C  -0.003313  0.504625  3.025255
C  -1.212369  -0.164635  3.086605
C  3.631961  -0.063305  2.828956
C  2.400257  0.503898  3.360299
C  4.642109  0.652607  0.760357
C  4.317703  0.985216  2.084102
C  4.537679  1.199017  -1.605546
C  4.477334  1.599084  -0.260907
C  2.806282  0.728982  -3.126876
C  3.533818  1.806795  -2.469317
C  0.696353  -0.476356  -3.021630
C  1.409712  0.719440  -2.994105
C  -1.376114  -1.663594  -2.890652
C  -0.687456  -0.471219  -3.022916
C  -3.124613  -2.568294  -1.571637
C  -2.691188  -1.593434  -2.458958
C  -4.335524  -2.862023  0.508443
C  -4.322098  -2.408405  -0.873458
C  -3.551716  -1.281177  2.204652
C  -4.558941  -1.660227  1.313623
C  -2.388398  0.548760  3.364996
C  -3.617863  -0.030854  2.841075
C  0.001688  1.849618  2.738287
C  -1.207329  2.497755  2.525184
C  -2.397166  1.981372  3.055084
C  2.398981  1.935932  3.054080
C  1.220192  2.475087  2.518582
C  3.649090  2.254541  2.366283
C  4.156274  2.939017  0.037671
C  3.655895  3.256575  1.374337
C  2.768092  2.843669  -1.908416
C  3.325978  3.659116  -0.924099
C  0.713096  1.888445  -2.680623
C  1.416870  2.998225  -2.226945
C  -1.391337  0.729813  -2.994273
C  -0.683651  1.893658  -2.683110
C  -3.501885  -0.508482  -2.813569
C  -2.788976  0.728672  -3.138782
C  -4.975516  -1.094349  -0.931012
C  -4.620241  -0.172603  -1.938212
C  -5.071953  -0.608606  0.442592
C  -4.295841  1.008428  2.074427
C  -4.635868  0.693716  0.747924
C  -3.642223  2.287526  2.357877
C  -1.205801  3.585137  1.656050
C  -2.407874  4.101423  1.171024
C  -3.620685  3.298964  1.374176
C  1.235124  3.568309  1.658187
C  0.018657  4.067499  1.171305
C  2.452720  4.071461  1.193626
C  2.440372  4.553874  -0.183675
C  0.751250  4.205341  -1.972627
C  1.203047  4.909799  -0.774840
C  -1.378540  3.012501  -2.230448
C  -0.719297  4.216166  -1.957193
C  -3.490853  1.831779  -2.496812
C  -2.729537  2.860794  -1.920112
C  -4.495582  1.250015  -1.614947
C  -4.453991  1.642624  -0.267431
C  -4.138703  2.977639  0.047166
C  -2.402942  4.572994  -0.206523
C  -3.296312  3.664520  -0.926693
C  0.037135  4.957379  0.096610
C  -1.145893  4.926900  -0.758090
