100
# Created by libgraph from Fullerene (http://tinyurl.com/fullerenes)
C  4.666808  -1.171762  -1.344337
C  3.972790  -0.712306  -2.539944
C  3.974397  0.752636  -2.519384
C  4.687151  1.194725  -1.329880
C  5.148116  0.004294  -0.614883
C  4.067939  2.244737  -0.625394
C  4.052211  2.244165  0.774380
C  4.603191  1.175733  1.500604
C  5.121175  0.008215  0.788866
C  2.773384  1.424174  -2.793743
C  2.662723  2.801649  -2.538208
C  3.381571  3.239686  -1.349001
C  2.775793  -1.395110  -2.801195
C  1.645979  -0.677316  -3.191269
C  1.649521  0.703015  -3.188054
C  4.071638  -2.234556  -0.637311
C  3.404374  -3.243029  -1.354973
C  2.688578  -2.775018  -2.532674
C  4.633695  -1.178541  1.486011
C  4.063180  -2.237975  0.762434
C  3.824692  0.711670  2.639947
C  3.829073  -0.736188  2.615175
C  3.395175  3.262306  1.484299
C  2.636168  2.780441  2.631786
C  2.616708  1.392319  2.795968
C  2.539251  4.201692  -0.632729
C  2.569271  4.236997  0.775676
C  1.330705  3.411027  -2.505054
C  1.238433  4.237895  -1.304377
C  0.441099  1.345068  -3.408984
C  0.257582  2.550869  -2.764200
C  0.443678  -1.328320  -3.425418
C  -0.612339  -0.732466  -4.126818
C  -0.598969  0.726441  -4.120218
C  1.354720  -3.375807  -2.524828
C  0.268590  -2.526634  -2.770693
C  2.543721  -4.195506  -0.650846
C  1.243353  -4.209260  -1.330756
C  3.389769  -3.242344  1.479661
C  2.591832  -4.232587  0.756131
C  2.617244  -1.409834  2.789644
C  2.628168  -2.797064  2.640052
C  1.411114  0.694085  2.982299
C  1.414669  -0.709659  2.979012
C  1.381609  3.500039  2.695883
C  0.189073  2.790577  2.886844
C  0.196163  1.395661  3.036809
C  1.321509  4.366339  1.531439
C  0.079955  4.069095  -0.524010
C  0.106360  4.311696  0.844987
C  -1.000504  2.781157  -2.235361
C  -1.089229  3.530505  -1.073326
C  -1.952871  1.187796  -3.800502
C  -2.117215  2.144247  -2.784368
C  -1.970810  -1.168191  -3.798395
C  -2.816734  0.015183  -3.691778
C  -0.992648  -2.769916  -2.249827
C  -2.116045  -2.138748  -2.792527
C  0.088648  -4.058152  -0.542234
C  -1.081197  -3.520420  -1.088050
C  1.344761  -4.405693  1.497346
C  0.122127  -4.318256  0.824811
C  1.375913  -3.524611  2.652624
C  0.199091  -1.413010  3.030105
C  0.193564  -2.807723  2.872784
C  -1.019525  0.693068  3.103796
C  -1.016079  -0.710874  3.099916
C  -1.009581  3.504352  2.759122
C  -2.261912  2.781237  2.892621
C  -2.235906  1.394046  3.045209
C  -1.088686  4.347965  1.578548
C  -2.312029  3.606852  -0.402619
C  -2.356574  4.045376  0.922130
C  -3.391017  2.366763  -2.248016
C  -3.483919  3.129933  -1.005236
C  -3.802067  0.000963  -2.680052
C  -4.275184  1.212897  -2.142967
C  -3.381343  -2.387853  -2.249502
C  -4.257919  -1.224814  -2.155911
C  -2.300753  -3.612161  -0.413194
C  -3.481616  -3.129430  -0.993885
C  -1.058394  -4.332670  1.585536
C  -2.323918  -4.075596  0.904711
C  -1.014140  -3.507504  2.780124
C  -2.235855  -1.406605  3.034438
C  -2.273358  -2.789895  2.860743
C  -3.461479  0.724107  3.005423
C  -3.454089  -0.725806  3.020933
C  -3.154051  3.241063  1.835161
C  -4.010155  2.288215  1.243692
C  -4.409283  1.167850  1.991395
C  -4.385956  2.413966  -0.107921
C  -4.853592  1.214420  -0.801666
C  -4.849189  -1.215614  -0.819125
C  -4.887088  -0.005668  -0.107651
C  -4.396600  -2.412666  -0.113786
C  -3.146947  -3.273535  1.799563
C  -4.004226  -2.305947  1.233046
C  -4.386129  -1.189310  1.999287
C  -4.900881  -0.017257  1.296110
