100
# Created by libgraph from Fullerene (http://tinyurl.com/fullerenes)
C  4.080424  -0.346933  2.416660
C  3.952034  1.105189  2.393494
C  4.636772  1.602322  1.214538
C  5.271694  0.470078  0.544027
C  5.012629  -0.724722  1.352372
C  5.215881  0.400438  -0.861120
C  4.929544  -0.880043  -1.510971
C  4.746497  -2.045292  -0.740807
C  4.858300  -1.973597  0.718478
C  3.846568  2.497309  0.479878
C  3.666873  2.306500  -0.895227
C  4.504143  1.441363  -1.609876
C  2.688011  1.675088  2.616540
C  2.530533  3.054829  2.429409
C  3.135692  3.491195  1.182452
C  2.919296  -1.117901  2.531900
C  1.705494  -0.527080  2.872679
C  1.577726  0.866446  2.869116
C  3.895367  -2.924142  1.277406
C  2.933219  -2.467701  2.186770
C  3.626341  -2.938159  -1.044002
C  3.298336  -3.659233  0.180531
C  3.984352  -0.609371  -2.589963
C  2.740351  -1.248459  -2.555638
C  2.564046  -2.405227  -1.784726
C  3.985288  0.830876  -2.828246
C  2.571243  2.906965  -1.526979
C  2.270290  2.628157  -2.868370
C  2.876297  1.433320  -3.457590
C  2.124614  4.240697  0.450717
C  1.708503  3.706004  -0.769588
C  1.197826  3.652673  2.498394
C  1.073100  4.603182  1.400966
C  0.305119  1.441596  2.972044
C  0.116488  2.793633  2.697872
C  0.586275  -1.338200  3.077748
C  -0.669989  -0.738094  3.052406
C  -0.806195  0.634439  3.212330
C  1.916615  -3.344854  2.616789
C  0.717234  -2.733397  3.179613
C  1.952245  -4.016375  0.366148
C  1.480419  -4.327801  1.639401
C  1.285984  -2.966163  -1.656923
C  1.039305  -3.912055  -0.673949
C  1.640324  -0.673975  -3.201846
C  0.384875  -1.282180  -3.075533
C  0.224403  -2.481658  -2.406448
C  1.773853  0.565752  -3.856450
C  0.861047  2.657490  -3.259968
C  0.564211  1.384955  -3.909788
C  0.390650  3.861258  -1.193112
C  -0.038443  3.098640  -2.273034
C  -0.235212  4.881751  0.937499
C  -0.507661  4.664621  -0.478937
C  -1.184391  3.251829  2.492596
C  -1.395959  4.348024  1.655911
C  -2.066833  1.186242  3.480421
C  -2.277586  2.555160  3.024441
C  -1.781142  -1.497464  2.724197
C  -3.040275  -0.900179  2.650808
C  -3.245422  0.408170  3.110176
C  -0.437421  -3.518426  2.730676
C  -1.588555  -2.818703  2.337090
C  0.045479  -4.552294  1.812842
C  -0.159434  -4.634249  -0.659564
C  -0.726273  -4.872010  0.668466
C  -1.036036  -3.096338  -2.366879
C  -1.250147  -4.208757  -1.542486
C  -0.742660  -0.593283  -3.468962
C  -1.982916  -1.202484  -3.645017
C  -2.126477  -2.531136  -3.055053
C  -0.619106  0.771280  -3.482695
C  -1.358573  2.655441  -2.254982
C  -1.656282  1.471185  -2.901077
C  -1.933107  4.344553  -0.621215
C  -2.314824  3.300645  -1.475444
C  -2.501258  4.235454  0.715441
C  -3.491977  2.574550  2.211062
C  -3.431189  3.197221  0.949907
C  -4.113260  1.253232  2.299264
C  -4.078343  -1.572166  1.999718
C  -4.867601  -0.735508  1.107558
C  -4.644155  0.655544  1.140110
C  -2.510904  -3.378163  1.456004
C  -3.786751  -2.822554  1.304054
C  -2.115485  -4.420177  0.621118
C  -2.485638  -4.208865  -0.771396
C  -3.394769  -2.558431  -2.329473
C  -3.407597  -3.175617  -1.064505
C  -3.157166  -0.409002  -3.280462
C  -4.029884  -1.244363  -2.466127
C  -2.932413  0.904634  -2.823217
C  -3.633252  2.823344  -1.431789
C  -3.955413  1.599071  -2.168316
C  -4.234986  2.732189  -0.109194
C  -4.883895  1.425142  -0.007695
C  -4.902860  -1.391131  -0.198156
C  -4.596917  -0.627001  -1.333938
C  -4.795144  0.769790  -1.311930
C  -4.280029  -2.708551  -0.061374
