100
# Created by libgraph from Fullerene (http://tinyurl.com/fullerenes)
C  3.232400  -3.726874  0.315426
C  3.218215  -3.840744  -1.134995
C  3.884900  -2.634232  -1.600045
C  4.821503  -2.225239  -0.560726
C  4.351972  -2.845639  0.679399
C  5.253050  -0.883919  -0.573606
C  5.285803  -0.118906  0.673324
C  4.759192  -0.679885  1.853886
C  4.282785  -2.071379  1.854161
C  3.060524  -1.644824  -2.140137
C  3.486631  -0.315918  -2.133403
C  4.731577  0.016999  -1.597059
C  2.003164  -4.244622  -1.730121
C  1.393839  -3.318417  -2.676419
C  1.774108  -1.971640  -2.573796
C  1.994841  -3.517690  0.934776
C  0.830540  -4.043574  0.354898
C  0.899415  -4.676971  -0.885863
C  3.050214  -2.122190  2.638055
C  1.897138  -2.687318  2.050203
C  3.831631  0.108469  2.666685
C  2.865192  -0.814031  3.254899
C  4.953814  1.271962  0.335980
C  3.898749  1.901484  1.005595
C  3.329805  1.304095  2.124206
C  4.918207  1.376533  -1.116277
C  2.625854  0.697110  -2.558634
C  3.084963  2.015575  -2.650874
C  4.140821  2.390314  -1.714923
C  0.853336  -0.939383  -2.787824
C  1.279662  0.394236  -2.775042
C  -0.042185  -3.613372  -2.712948
C  -0.945752  -2.544540  -2.704215
C  -0.505910  -1.236257  -2.884299
C  -0.298725  -4.644350  -1.709375
C  -0.424884  -3.829289  0.940650
C  -1.573300  -4.418958  0.400688
C  -1.543478  -4.658522  -1.040339
C  0.615191  -2.321688  2.489567
C  -0.532974  -2.916125  1.986569
C  1.549037  -0.351367  3.293661
C  0.489010  -1.221000  3.305692
C  2.147378  1.855195  2.610879
C  1.222371  0.974751  3.141904
C  3.325804  3.079304  0.493684
C  2.445013  3.862164  1.267229
C  1.850088  3.213197  2.429897
C  3.558951  3.409037  -0.844698
C  2.104185  3.094632  -2.646032
C  2.431230  4.000799  -1.554788
C  0.339494  1.427213  -2.851176
C  0.751243  2.760686  -2.756058
C  -1.443732  -0.211714  -3.030726
C  -1.021070  1.113153  -2.884352
C  -2.288389  -2.758917  -2.393300
C  -3.270300  -1.828773  -2.752120
C  -2.803468  -0.522491  -3.202165
C  -2.625634  -3.856419  -1.603130
C  -2.872744  -3.827301  0.722288
C  -3.560161  -3.544172  -0.531094
C  -1.787004  -2.478141  2.436436
C  -2.922623  -2.821486  1.697990
C  -0.696295  -0.883679  3.966557
C  -1.888167  -1.615485  3.544892
C  -0.094315  1.365686  3.338166
C  -1.025172  0.541009  3.991252
C  0.428909  3.565579  2.476535
C  -0.487156  2.520736  2.688961
C  1.384699  4.598774  0.576116
C  0.149755  4.449667  1.350246
C  1.313158  4.455877  -0.823850
C  -0.194067  3.782864  -2.625972
C  0.092005  4.663202  -1.502654
C  -1.968796  2.104750  -2.636414
C  -1.616039  3.453483  -2.579244
C  -3.757917  0.471715  -2.727978
C  -3.264104  1.713904  -2.316438
C  -4.357873  -1.616843  -1.802052
C  -4.656204  -0.185093  -1.781966
C  -4.260771  -2.318405  -0.585515
C  -4.100447  -2.082714  1.848573
C  -4.782492  -1.764788  0.598567
C  -3.002618  -0.666917  3.547906
C  -4.096871  -0.885985  2.687282
C  -2.424736  0.675660  3.598891
C  -1.769524  2.533423  2.146800
C  -2.700037  1.556890  2.537187
C  -1.024119  4.229882  0.611411
C  -2.055910  3.434540  1.122548
C  -1.116715  4.721869  -0.693215
C  -2.226479  4.240649  -1.516597
C  -4.030741  2.521360  -1.476275
C  -3.381739  3.702422  -0.903937
C  -4.863121  0.435570  -0.534685
C  -4.744738  1.836601  -0.411831
C  -5.104919  -0.340673  0.612331
C  -4.606718  0.212140  1.866496
C  -3.863037  1.395695  1.779362
C  -3.323823  3.466732  0.532604
C  -4.243378  2.371272  0.847869
