100
# Created by libgraph from Fullerene (http://tinyurl.com/fullerenes)
C  3.635153  0.801318  2.858609
C  3.709650  2.064044  2.129095
C  4.533189  1.846554  0.947529
C  4.888282  0.429475  0.917432
C  4.518860  -0.163141  2.202425
C  4.560023  -0.253747  -0.257944
C  4.083647  -1.571657  -0.182883
C  4.210067  -2.309811  0.997357
C  4.208040  -1.544649  2.239710
C  4.082990  2.457222  -0.241902
C  4.356125  1.859593  -1.488287
C  4.624961  0.426037  -1.487300
C  2.516587  2.788307  1.940281
C  2.510842  3.854486  1.038754
C  3.284845  3.619951  -0.175562
C  2.362054  0.353069  3.198043
C  1.310876  1.244926  3.348125
C  1.321263  2.379984  2.550437
C  3.019727  -1.968577  2.975109
C  2.063980  -0.993905  3.267079
C  3.346641  -3.475248  1.188169
C  2.499485  -3.183763  2.342821
C  3.390533  -2.107438  -1.268456
C  2.894573  -3.420256  -1.249323
C  2.774549  -4.082447  0.048772
C  3.907652  -0.159757  -2.612670
C  3.103105  -1.267708  -2.342794
C  3.457019  2.140237  -2.604635
C  3.326120  0.924880  -3.402263
C  2.403671  3.875878  -1.311231
C  2.310016  2.870400  -2.281959
C  1.235309  4.444180  0.645610
C  1.169226  4.463408  -0.805143
C  0.107285  3.005490  2.257051
C  0.064457  3.999710  1.277418
C  0.225065  0.916953  4.172387
C  -1.015863  1.653115  3.944708
C  -1.073373  2.534643  2.851746
C  0.736127  -1.331059  3.501469
C  -0.101058  -0.501876  4.267908
C  1.110784  -3.282712  2.141616
C  0.238267  -2.423884  2.808209
C  1.407029  -4.595589  0.140925
C  0.585690  -4.151206  1.183216
C  1.674725  -3.683297  -2.010535
C  0.784936  -4.479584  -1.170344
C  1.942085  -1.505350  -3.066274
C  1.134761  -2.570147  -2.665445
C  2.122994  0.709625  -4.107257
C  1.542783  -0.631298  -4.084169
C  1.075100  2.534138  -2.854030
C  1.016259  1.653281  -3.946370
C  -0.063273  3.997160  -1.281560
C  -0.105991  3.001472  -2.259305
C  -1.169768  4.463042  0.805023
C  -1.234480  4.442329  -0.646222
C  -2.309049  2.871032  2.281746
C  -2.403860  3.875415  1.311380
C  -2.122798  0.709937  4.107900
C  -3.326312  0.924926  3.403185
C  -3.456153  2.140007  2.605195
C  -1.543004  -0.631289  4.087618
C  -1.135550  -2.565413  2.664165
C  -1.945831  -1.505664  3.072288
C  -0.785106  -4.480195  1.170758
C  -1.673823  -3.681724  2.009848
C  -0.586297  -4.152657  -1.179149
C  -1.408273  -4.596538  -0.140037
C  -0.239054  -2.429279  -2.806305
C  -1.112425  -3.286851  -2.139731
C  0.101176  -0.502222  -4.264125
C  -0.735315  -1.332066  -3.494043
C  -0.224463  0.916226  -4.174363
C  -1.319475  2.374000  -2.551848
C  -1.312393  1.242248  -3.355487
C  -2.509326  3.851966  -1.038780
C  -2.514061  2.786261  -1.942751
C  -3.283905  3.619282  0.175577
C  -4.355491  1.859706  1.488666
C  -4.081904  2.458024  0.241805
C  -3.909866  -0.159832  2.614372
C  -4.624456  0.426408  1.487362
C  -3.106306  -1.268366  2.348318
C  -2.893389  -3.418151  1.248532
C  -3.387268  -2.103964  1.269121
C  -2.774996  -4.081174  -0.048826
C  -2.500924  -3.183894  -2.343962
C  -3.347311  -3.473883  -1.188184
C  -2.066746  -0.997609  -3.273356
C  -3.022063  -1.968897  -2.976883
C  -2.365044  0.350135  -3.202989
C  -3.709173  2.065452  -2.128454
C  -3.635973  0.803556  -2.859463
C  -4.533058  1.847534  -0.946982
C  -4.558372  -0.250605  0.256882
C  -4.888517  0.430917  -0.917770
C  -4.080802  -1.567902  0.183708
C  -4.208890  -2.307548  -0.996215
C  -4.208376  -1.542932  -2.239239
C  -4.519384  -0.161182  -2.202658
