100
# Created by libgraph from Fullerene (http://tinyurl.com/fullerenes)
C  3.044065  -1.570051  2.936004
C  3.429357  -2.641114  2.025223
C  4.428190  -2.106239  1.107085
C  4.717298  -0.732255  1.517987
C  4.005203  -0.479279  2.767791
C  4.718253  0.253110  0.518634
C  4.362099  1.577142  0.823585
C  3.928657  1.916849  2.115860
C  3.622042  0.843126  3.063666
C  4.228080  -2.383708  -0.259593
C  4.658194  -1.464372  -1.238718
C  5.013610  -0.115175  -0.802091
C  2.396665  -3.407142  1.465895
C  2.643943  -4.182721  0.334995
C  3.512228  -3.541852  -0.645385
C  1.686247  -1.232133  2.999700
C  0.706511  -2.161752  2.624576
C  1.092439  -3.318615  1.952729
C  2.264011  1.071515  3.542704
C  1.301719  0.067861  3.317437
C  2.890418  2.938173  2.231753
C  1.871727  2.418005  3.134192
C  4.367080  2.563716  -0.179126
C  3.386547  3.639757  -0.037048
C  2.480061  3.535156  1.025808
C  4.657414  0.808385  -1.877477
C  4.370499  2.155819  -1.579713
C  3.844935  -1.333963  -2.440842
C  3.724374  0.094852  -2.738239
C  2.738632  -3.415941  -1.871155
C  2.692136  -2.127475  -2.427777
C  1.500426  -4.763534  -0.370555
C  1.470541  -4.130838  -1.687653
C  0.158048  -4.320636  1.665288
C  0.288878  -4.930687  0.343960
C  -0.656253  -1.879929  2.795880
C  -1.626507  -2.828463  2.471055
C  -1.262994  -4.045444  1.878776
C  -0.060395  0.385956  3.271294
C  -1.039051  -0.586353  3.142781
C  0.553053  2.557584  2.704632
C  -0.418751  1.709830  3.166078
C  1.145390  3.923428  0.837076
C  0.174632  3.423895  1.700482
C  2.849611  3.942802  -1.364608
C  1.538172  4.454114  -1.499290
C  0.783446  4.687440  -0.275547
C  3.215065  2.806495  -2.197690
C  2.429299  0.615522  -2.850920
C  2.182967  1.970926  -2.624418
C  1.473188  -1.587435  -2.837422
C  1.349936  -0.232903  -3.067341
C  0.291417  -3.455845  -2.021966
C  0.329159  -2.364666  -2.868802
C  -0.966066  -4.653674  -0.354152
C  -0.923567  -3.761980  -1.427063
C  -1.976637  -4.354761  0.650868
C  -2.989036  -2.511319  2.590750
C  -3.742122  -2.873715  1.401333
C  -2.975508  -3.408529  0.355196
C  -2.389613  -0.214776  3.202265
C  -3.392394  -1.158948  2.961281
C  -1.722263  2.165159  3.342399
C  -2.753907  1.134937  3.371686
C  -1.193881  3.645485  1.488401
C  -2.149887  3.231544  2.438682
C  -0.638621  4.704221  -0.627136
C  -1.587433  4.146520  0.251373
C  0.601847  3.802548  -2.413235
C  -0.745838  4.142377  -1.964028
C  0.872652  2.463290  -2.708713
C  0.087366  0.271392  -3.357422
C  -0.178350  1.577583  -2.966536
C  -0.804742  -1.988733  -3.604736
C  -0.908264  -0.561292  -3.894631
C  -2.066694  -3.063874  -1.843734
C  -2.097741  -2.434731  -3.098485
C  -3.120014  -2.904095  -0.941597
C  -4.701255  -1.806930  1.107230
C  -4.981039  -1.469492  -0.229875
C  -4.255786  -2.164329  -1.291386
C  -4.460333  -0.730008  2.066269
C  -3.829870  1.570890  2.490507
C  -4.354236  0.599198  1.617819
C  -3.498059  2.904130  1.977373
C  -2.904545  3.959751  -0.198480
C  -3.859824  3.252486  0.662172
C  -1.763352  3.183170  -2.116160
C  -3.016392  3.428523  -1.546008
C  -1.493649  1.940340  -2.693183
C  -2.290933  -0.153936  -3.650625
C  -2.509278  0.992553  -2.867673
C  -3.058833  -1.357389  -3.317105
C  -4.157915  -1.260010  -2.439625
C  -5.069513  -0.064213  -0.617584
C  -4.562250  0.063170  -1.976874
C  -4.679153  0.931591  0.296103
C  -4.533082  2.251755  -0.165894
C  -4.008070  2.361805  -1.520446
C  -3.703829  1.151375  -2.158868
