100
# Created by libgraph from Fullerene (http://tinyurl.com/fullerenes)
C  4.071728  -1.571671  2.177947
C  4.290607  -2.601775  1.173217
C  4.675242  -1.871722  -0.029014
C  5.265658  -0.603674  0.393411
C  4.871695  -0.402604  1.789095
C  5.245263  0.473253  -0.516455
C  4.926476  1.821121  -0.043318
C  4.533838  2.021884  1.294766
C  4.489125  0.882671  2.221686
C  3.724192  -1.843845  -1.052474
C  3.639873  -0.726543  -1.894654
C  4.576812  0.304824  -1.804888
C  3.338678  -3.643748  1.080044
C  2.833562  -3.949357  -0.248909
C  2.789084  -2.883296  -1.148404
C  2.752023  -1.346292  2.582382
C  1.797576  -2.368093  2.456054
C  2.152440  -3.621322  1.930809
C  3.265397  1.003135  3.009769
C  2.352504  -0.071329  2.995009
C  3.377623  2.873480  1.583245
C  2.692377  2.319058  2.742407
C  4.183087  2.497733  -1.112337
C  2.959116  3.104703  -0.810474
C  2.567537  3.277269  0.512028
C  4.193527  1.628571  -2.283231
C  2.544541  -0.598315  -2.749262
C  2.388701  0.524648  -3.578941
C  3.144141  1.725622  -3.224026
C  1.738875  -2.784797  -2.056761
C  1.534786  -1.554124  -2.667019
C  1.601203  -4.723468  -0.087421
C  0.653066  -4.773797  -1.138067
C  0.843546  -3.848844  -2.250245
C  1.107049  -4.395208  1.245844
C  0.451419  -2.091368  2.729200
C  -0.530186  -2.975606  2.326334
C  -0.194200  -3.886339  1.338234
C  0.993797  0.154900  3.259054
C  0.070348  -0.869475  3.255252
C  1.296122  2.375462  2.681191
C  0.532390  1.446735  3.328199
C  1.271446  3.737173  0.743417
C  0.609158  3.231656  1.846763
C  2.054855  3.444968  -1.828508
C  0.966179  4.312362  -1.584766
C  0.628392  4.553758  -0.186440
C  2.170323  2.808727  -3.071564
C  1.022534  0.934095  -3.911908
C  0.898195  2.360962  -3.624518
C  0.260305  -1.213608  -3.064746
C  0.012220  0.097008  -3.427334
C  -0.483651  -3.498290  -2.771738
C  -0.772985  -2.136966  -2.944758
C  -0.781465  -4.742384  -0.838446
C  -1.472558  -4.277350  -2.031182
C  -1.154419  -4.150254  0.367009
C  -1.842294  -2.856999  2.796674
C  -2.872069  -3.206831  1.822502
C  -2.465276  -3.693929  0.564573
C  -1.262333  -0.611099  3.608973
C  -2.240739  -1.603699  3.438386
C  -0.716017  1.793540  3.844370
C  -1.654363  0.685440  4.002772
C  -0.764087  3.423616  2.032708
C  -1.409524  2.893172  3.167554
C  -0.829348  4.653903  -0.070995
C  -1.492998  4.019323  1.001789
C  -0.278329  4.015372  -2.282254
C  -1.387324  4.316583  -1.372788
C  -0.265435  2.781639  -2.944103
C  -1.243292  0.588353  -3.123399
C  -1.365035  1.927641  -2.807707
C  -2.085995  -1.658608  -2.875663
C  -2.325883  -0.282326  -2.986404
C  -2.781969  -3.767039  -1.868631
C  -3.125638  -2.538037  -2.573921
C  -3.346642  -3.620721  -0.525302
C  -3.845454  -2.118503  1.795369
C  -4.218331  -1.618756  0.538225
C  -4.285610  -2.499920  -0.552393
C  -3.490469  -1.162021  2.836856
C  -2.927139  1.114067  3.435331
C  -3.549657  0.212108  2.556619
C  -2.816406  2.522615  3.048713
C  -2.891181  3.873725  0.957726
C  -3.540236  2.996909  1.936640
C  -2.487700  3.441278  -1.343774
C  -3.458727  3.585300  -0.350595
C  -2.546297  2.351144  -2.207288
C  -3.622232  0.221803  -2.832451
C  -3.728037  1.609333  -2.369082
C  -4.285370  -1.953190  -1.905449
C  -4.563522  -0.578664  -2.059978
C  -4.443030  -0.244424  0.350156
C  -4.896920  0.223646  -0.889514
C  -4.139711  0.669752  1.371792
C  -4.354448  2.044538  1.182136
C  -4.466539  2.540083  -0.189204
C  -4.657553  1.619567  -1.239532
