100
# Created by libgraph from Fullerene (http://tinyurl.com/fullerenes)
C  4.394496  0.210655  2.357700
C  4.625928  1.609932  2.013751
C  5.233350  1.630122  0.683809
C  5.552646  0.248007  0.311617
C  5.144230  -0.619329  1.415440
C  5.391744  -0.180774  -1.017145
C  4.908788  -1.538405  -1.293788
C  4.632759  -2.425028  -0.226798
C  4.721621  -1.939471  1.154502
C  4.767514  2.533244  -0.286558
C  4.518466  2.063270  -1.653851
C  4.810777  0.725969  -2.010618
C  3.654575  2.569325  2.370954
C  3.240247  3.580437  1.390871
C  3.735533  3.517818  0.062964
C  3.091580  -0.181576  2.665114
C  2.145728  0.771396  3.067804
C  2.456138  2.142283  3.100607
C  3.554302  -2.445449  1.875333
C  2.685233  -1.505774  2.454943
C  3.470634  -3.322784  -0.297749
C  2.912912  -3.460810  1.042431
C  3.963071  -1.455222  -2.405167
C  2.742270  -2.131198  -2.279793
C  2.533534  -3.088480  -1.308204
C  3.849043  -0.051744  -2.797924
C  3.259661  2.652276  -2.100008
C  2.268161  1.783941  -2.587058
C  2.551990  0.461288  -2.911801
C  2.808909  3.594316  -1.071661
C  1.813817  3.851157  1.612172
C  0.954906  3.723974  0.510530
C  1.447187  3.559244  -0.769346
C  1.376502  3.080601  2.778556
C  0.828239  0.351549  3.281904
C  -0.197781  1.249160  3.186770
C  0.103850  2.491666  2.681350
C  1.346817  -1.836042  2.697559
C  0.508612  -0.983355  3.371544
C  1.506165  -3.507288  1.063993
C  0.785950  -2.922678  2.076943
C  1.259291  -3.662981  -1.263021
C  0.765635  -3.964430  -0.010053
C  1.623801  -1.752962  -3.016710
C  0.614095  -2.666210  -3.373317
C  0.463422  -3.759550  -2.412651
C  1.467307  -0.391069  -3.179037
C  0.927219  2.164411  -2.593132
C  -0.054009  1.468890  -3.267198
C  0.191079  0.111747  -3.405546
C  0.519946  3.105523  -1.700532
C  -0.424212  3.546335  0.666974
C  -1.335525  3.668191  -0.364370
C  -0.841224  3.390798  -1.620659
C  -0.857451  2.960380  1.814581
C  -1.514865  0.808154  3.363077
C  -2.543829  1.542233  2.756883
C  -2.205432  2.644171  1.963273
C  -0.697448  -1.439542  3.926967
C  -1.761589  -0.428189  3.989895
C  -0.543184  -3.289094  2.319114
C  -1.275778  -2.658925  3.350110
C  -0.492697  -4.541652  0.170551
C  -1.178121  -4.176216  1.423067
C  -0.970481  -4.015214  -2.208321
C  -1.447373  -4.424309  -0.931796
C  -0.725922  -2.139374  -3.648293
C  -1.693852  -2.953677  -2.914005
C  -0.889889  -0.746817  -3.532046
C  -1.289540  2.084165  -3.572711
C  -2.414299  1.157637  -3.658742
C  -2.145189  -0.179400  -3.325654
C  -1.704657  3.192580  -2.704060
C  -2.696193  3.843284  -0.088429
C  -3.628353  3.418155  -1.137048
C  -3.135924  3.045732  -2.414730
C  -3.173925  3.313569  1.195490
C  -3.860070  1.089131  2.829692
C  -4.766825  1.515513  1.756821
C  -4.444785  2.638770  0.961466
C  -3.026559  -1.087330  3.654669
C  -4.064245  -0.339186  3.047712
C  -2.683203  -2.391268  3.076845
C  -2.542731  -3.793648  1.085428
C  -3.087275  -2.678469  1.763895
C  -2.655072  -3.809783  -0.370992
C  -2.649465  -2.213273  -2.200252
C  -3.123560  -2.641204  -0.969102
C  -3.066112  -0.954634  -2.641441
C  -3.583351  1.793573  -3.034611
C  -4.541420  0.994935  -2.374790
C  -4.317787  -0.444987  -2.287668
C  -4.669556  2.611034  -0.489205
C  -5.120510  1.429110  -1.100011
C  -5.264247  0.298832  1.114934
C  -5.374765  0.236688  -0.287326
C  -4.685500  -0.842122  1.829120
C  -3.953739  -1.790476  1.107860
C  -3.996762  -1.796610  -0.284229
C  -4.813402  -0.907161  -0.998428
