100
# Created by libgraph from Fullerene (http://tinyurl.com/fullerenes)
C  4.219358  -1.665872  1.648746
C  3.897392  -0.658454  2.656281
C  4.402078  0.621232  2.190424
C  5.145411  0.399970  0.952293
C  5.078196  -1.031261  0.643387
C  5.041303  1.354339  -0.078606
C  4.947186  0.908754  -1.471267
C  4.855222  -0.464715  -1.772254
C  4.999682  -1.451249  -0.699579
C  3.443945  1.640259  2.249780
C  3.214815  2.448897  1.137332
C  4.138591  2.498802  0.085292
C  2.591902  -0.638054  3.179187
C  2.162705  0.472398  3.932264
C  2.634419  1.739102  3.392794
C  3.186250  -2.491419  1.184848
C  2.005716  -2.625036  1.912199
C  1.682851  -1.644811  2.840071
C  4.141879  -2.586471  -1.030241
C  3.265992  -3.093127  -0.065518
C  3.792933  -0.934032  -2.667230
C  3.452135  -2.292445  -2.272668
C  4.060550  1.835369  -2.170174
C  2.981234  1.331090  -2.902338
C  2.752368  -0.041532  -2.934950
C  3.654095  2.871690  -1.240087
C  1.990906  3.115589  1.033855
C  1.520217  3.467247  -0.226391
C  2.317268  3.286892  -1.359556
C  1.511584  2.674297  3.366996
C  1.184887  3.313690  2.162009
C  0.738116  0.626281  4.231211
C  0.375999  2.023646  4.004777
C  0.380943  -1.588613  3.309110
C  -0.102455  -0.345648  3.685101
C  1.094103  -3.652455  1.622195
C  -0.089292  -3.800562  2.366567
C  -0.451453  -2.714046  3.272281
C  2.366473  -4.104373  -0.438024
C  1.311519  -4.468443  0.505814
C  2.101361  -2.680920  -2.298317
C  1.755642  -3.917196  -1.741491
C  1.443888  -0.499025  -3.120183
C  1.105270  -1.798437  -2.732764
C  2.068104  2.231774  -3.468691
C  0.818604  1.682043  -3.979254
C  0.461230  0.387531  -3.575184
C  1.736048  3.376827  -2.638266
C  0.193404  3.860450  -0.357716
C  -0.434639  3.632682  -1.577194
C  0.295480  3.596755  -2.766751
C  -0.021731  4.038756  2.075985
C  -0.521427  4.352935  0.741818
C  -0.885267  2.280719  3.430540
C  -1.140666  3.527774  2.855812
C  -1.415117  -0.052979  3.355457
C  -1.840859  1.269484  3.311190
C  -1.871567  -2.426227  3.087186
C  -2.248612  -1.081518  2.932379
C  -1.293056  -4.207142  1.643084
C  -2.395088  -3.355799  2.091454
C  0.116724  -4.777156  -0.272006
C  -1.148161  -4.449528  0.262721
C  0.353749  -4.287764  -1.622971
C  -0.246400  -2.164122  -2.651341
C  -0.609177  -3.406397  -2.116390
C  -0.886737  0.015742  -3.520227
C  -1.237237  -1.232110  -2.984161
C  -0.195773  2.719840  -3.824298
C  -1.557905  2.356559  -3.789449
C  -1.873536  0.938063  -3.899280
C  -1.787047  3.312881  -1.564958
C  -2.420875  2.873081  -2.727399
C  -1.959866  4.085056  0.726137
C  -2.463837  3.327515  -0.344297
C  -2.367121  3.708021  2.078290
C  -3.180986  1.565481  3.026136
C  -3.417811  2.779666  2.248546
C  -3.408475  -0.735861  2.245320
C  -4.022019  0.504867  2.463681
C  -3.246935  -2.848938  1.096066
C  -3.867546  -1.603403  1.257475
C  -2.241108  -4.271447  -0.613254
C  -3.400435  -3.550440  -0.104607
C  -1.953753  -3.743003  -1.940747
C  -2.575698  -1.498372  -2.669094
C  -2.989818  -2.770208  -2.266157
C  -3.204289  0.746221  -3.333422
C  -3.483278  -0.442289  -2.650494
C  -3.528915  1.942084  -2.569749
C  -3.583098  2.503218  -0.187135
C  -4.034403  1.735932  -1.271859
C  -4.180207  2.372640  1.071611
C  -4.797220  1.083730  1.373415
C  -4.868167  -1.195324  0.371790
C  -5.188091  0.234120  0.317172
C  -4.013149  -2.845314  -1.229905
C  -4.793673  -1.692668  -0.995268
C  -4.626614  -0.515559  -1.844660
C  -4.919141  0.669772  -1.050256
