100
# Created by libgraph from Fullerene (http://tinyurl.com/fullerenes)
C  4.497267  -2.150954  -1.053496
C  4.778173  -1.123920  -2.119602
C  5.361285  0.047684  -1.302907
C  5.834135  -0.128849  -0.002303
C  5.240387  -1.592201  0.120988
C  5.377798  0.953009  0.952370
C  4.712832  0.561934  2.076836
C  4.443049  -0.822717  2.363599
C  4.526486  -1.871420  1.306006
C  4.296272  0.868443  -1.107669
C  4.113998  1.954143  -0.354675
C  4.968416  2.348590  0.518045
C  3.680570  -1.027553  -3.019497
C  3.025001  0.207058  -2.834755
C  3.125529  0.766365  -1.697067
C  3.112601  -2.757066  -1.009627
C  2.181147  -2.819333  -2.133459
C  2.510561  -1.953155  -3.214266
C  3.289176  -2.749092  1.313898
C  2.501392  -3.082477  0.191797
C  3.079747  -1.141132  2.987966
C  2.414835  -2.349713  2.475383
C  3.806419  1.573659  2.603034
C  2.633903  0.872513  2.420557
C  2.140299  -0.146470  2.863044
C  3.980499  3.397862  1.190879
C  3.224191  2.827335  2.121054
C  2.817128  2.323876  0.173488
C  2.685859  3.802280  0.251013
C  2.082381  1.347658  -1.160141
C  1.806508  1.564597  0.017094
C  1.654669  0.148579  -3.203867
C  0.614904  0.938193  -2.489735
C  0.890333  1.830942  -1.514898
C  1.316291  -1.176418  -3.591293
C  0.947432  -3.631056  -2.074745
C  -0.165757  -2.982817  -2.758606
C  0.113670  -1.646051  -3.119781
C  1.008421  -3.566740  0.353551
C  0.385158  -4.190101  -0.785319
C  0.904417  -2.394045  2.414121
C  0.190543  -3.198252  1.504102
C  0.654377  -0.251194  2.955317
C  0.050916  -1.430108  3.014842
C  1.750096  1.209118  1.430179
C  0.283255  1.054106  1.475944
C  -0.148520  0.574434  2.437689
C  1.670385  2.606251  1.919504
C  1.118816  3.634137  0.139997
C  0.592178  3.088771  1.220962
C  0.713226  1.766598  -1.027032
C  0.421389  3.248980  -1.094393
C  -0.138501  2.820611  -0.621179
C  -0.550837  2.059087  -0.981663
C  -0.599962  0.490570  -2.454010
C  -1.433805  1.471479  -1.866448
C  -1.320068  2.180717  -0.697133
C  -0.778935  -0.717864  -2.668134
C  -1.304655  -3.356933  -2.010160
C  -2.096604  -2.347774  -1.687469
C  -1.815575  -1.053822  -2.047591
C  -1.077691  -4.104055  -0.775438
C  -1.258161  -3.276193  1.574397
C  -1.868289  -3.724779  0.421707
C  -1.353040  -1.503621  3.382441
C  -2.085465  -2.592335  2.702344
C  -1.661065  0.810137  2.534527
C  -2.248577  -0.201945  3.275866
C  -0.677145  1.075419  0.438824
C  -1.967187  1.219775  0.124900
C  -2.332568  1.611924  1.497376
C  -0.667822  2.487651  0.570518
C  -1.154062  3.390250  -1.552154
C  -1.737690  2.877818  -0.282582
C  -1.659226  2.045540  -1.868394
C  -2.605098  2.443925  -0.124493
C  -2.858912  1.629361  -1.316358
C  -2.734119  1.320481  -2.017364
C  -3.650245  2.148220  -1.132826
C  -2.545720  -0.023529  -1.622498
C  -3.131868  -2.628830  -0.855189
C  -3.405344  -1.565080  -0.324756
C  -3.027393  -0.386644  -0.567803
C  -3.239438  -3.531839  0.332289
C  -3.454088  -2.120122  2.560747
C  -4.015838  -2.671993  1.314982
C  -3.601065  -0.757527  2.880159
C  -3.886802  1.374550  1.838157
C  -4.027540  0.106542  1.952479
C  -3.463104  1.029727  0.148658
C  -4.706644  1.677470  0.659333
C  -3.150354  2.324917  -0.539015
C  -4.298602  2.177662  -0.858599
C  -4.080293  0.879500  -1.286413
C  -5.169497  1.223747  -1.485823
C  -4.153802  0.085140  -0.183036
C  -4.400760  -1.728194  0.486992
C  -4.742624  -0.674401  1.001120
C  -5.342978  -0.258775  0.062335
C  -5.734980  0.929754  -0.077754
