100
# Created by libgraph from Fullerene (http://tinyurl.com/fullerenes)
C  4.967058  -0.249349  0.385956
C  4.946606  0.213352  -0.995421
C  4.557091  -0.917962  -1.830818
C  4.367119  -2.074002  -0.958358
C  4.773515  -1.698512  0.393268
C  3.175592  -2.783919  -1.140062
C  2.482892  -3.283197  -0.027565
C  3.086342  -3.307235  1.235434
C  4.128091  -2.315130  1.485029
C  3.613314  -0.688424  -2.848467
C  2.833896  -1.759934  -3.334585
C  2.648574  -2.897750  -2.436175
C  4.357110  1.470423  -1.227053
C  3.775992  1.753472  -2.476709
C  3.401690  0.619985  -3.325543
C  4.262845  0.523605  1.312485
C  4.280753  1.916824  1.193323
C  4.283858  2.413585  -0.178606
C  3.635220  -1.459140  2.559559
C  3.468113  -0.096317  2.275639
C  2.222204  -3.335479  2.411707
C  2.526812  -2.157856  3.211006
C  1.143314  -3.661400  -0.161409
C  0.365848  -3.960601  0.962458
C  0.857614  -3.605636  2.218351
C  1.276545  -3.372987  -2.575270
C  0.535186  -3.618478  -1.407652
C  1.542272  -1.465218  -3.949869
C  0.602063  -2.509106  -3.535614
C  2.094213  0.906199  -3.906032
C  1.134344  -0.126386  -3.874910
C  2.696861  2.738031  -2.529997
C  1.671727  2.224312  -3.433315
C  3.248863  3.436740  -0.277331
C  2.299356  3.279435  -1.295123
C  3.319939  2.711451  1.954947
C  2.760474  3.721225  1.070106
C  2.436621  0.638013  2.865371
C  2.396783  2.036254  2.767753
C  1.383547  -1.434239  3.584114
C  1.364880  -0.041707  3.431140
C  -0.039457  -3.384370  3.267539
C  0.220682  -2.138059  3.973969
C  -0.928910  -4.497843  0.816973
C  -1.912885  -4.126193  1.832664
C  -1.477507  -3.481242  3.011027
C  -0.857461  -3.688919  -1.447495
C  -1.583774  -4.387888  -0.487624
C  -0.687844  -2.098358  -3.168608
C  -1.493294  -2.900425  -2.385703
C  -0.216974  0.171183  -3.642658
C  -1.146652  -0.824672  -3.428680
C  0.354491  2.331316  -2.986037
C  -0.610336  1.473517  -3.443171
C  0.945886  3.554576  -1.042289
C  -0.015378  3.179890  -1.965487
C  1.388298  3.934522  1.268760
C  0.534699  4.071273  0.181236
C  1.354204  2.765706  3.376444
C  0.862116  3.869155  2.563285
C  0.202769  0.663564  3.702830
C  0.187195  2.049412  3.877844
C  -1.029966  -1.387274  4.020806
C  -0.976575  -0.044420  3.629428
C  -2.065718  -2.194478  3.380071
C  -3.068739  -3.576593  1.121770
C  -3.416585  -2.241095  1.346696
C  -2.875972  -1.556367  2.431501
C  -2.975196  -3.991863  -0.273286
C  -2.881763  -2.787235  -2.453788
C  -3.624139  -3.218566  -1.269097
C  -2.508716  -0.511190  -3.300450
C  -3.423742  -1.497711  -2.891532
C  -1.942078  1.883911  -3.526090
C  -2.941691  0.818939  -3.451749
C  -1.363916  3.516218  -1.788072
C  -2.352563  2.961506  -2.626539
C  -0.752005  4.600499  0.347316
C  -1.741355  4.307815  -0.695962
C  -0.592474  3.963976  2.722146
C  -1.393557  4.411888  1.644937
C  -1.014970  2.760216  3.431665
C  -2.051124  0.594778  3.029327
C  -2.025411  1.977446  2.847301
C  -3.064676  -0.179255  2.487383
C  -4.227413  -1.545671  0.435583
C  -4.762618  -0.284374  0.755354
C  -4.188347  0.404420  1.901812
C  -4.425065  -2.069170  -0.844870
C  -4.432492  -1.086663  -1.926290
C  -3.972740  1.242902  -2.507308
C  -4.459786  0.286160  -1.594775
C  -3.608275  2.568070  -1.998142
C  -2.975042  3.887256  -0.042225
C  -3.718133  2.831675  -0.620750
C  -2.688456  3.778959  1.381222
C  -2.953060  2.541762  1.969802
C  -4.099666  1.827262  1.587493
C  -4.905091  0.688743  -0.323411
C  -4.505887  1.998434  0.196142
