100
# Created by libgraph from Fullerene (http://tinyurl.com/fullerenes)
C  4.284695  -1.909615  1.302090
C  4.520392  -0.555626  1.798429
C  5.265459  0.175061  0.779812
C  5.359211  -0.684654  -0.404048
C  4.846136  -2.009791  -0.045561
C  5.098226  -0.151276  -1.677764
C  4.295787  -0.917106  -2.639132
C  3.877497  -2.230638  -2.331140
C  4.193753  -2.800953  -1.017084
C  5.029894  1.558776  0.640437
C  4.767635  2.116561  -0.687225
C  4.753673  1.267059  -1.819796
C  3.433865  0.091180  2.410130
C  3.366951  1.482827  2.463089
C  4.145530  2.248965  1.587703
C  3.011110  -2.445451  1.508959
C  2.206108  -1.982612  2.537929
C  2.336687  -0.639991  2.864967
C  3.053323  -3.624867  -0.604189
C  2.443720  -3.345489  0.628455
C  2.517999  -2.661686  -2.677690
C  2.108280  -3.677514  -1.710070
C  3.332440  0.001703  -3.240437
C  1.970033  -0.346843  -3.203030
C  1.581226  -1.660823  -2.965817
C  3.647290  1.347644  -2.774188
C  3.709736  3.121878  -0.538479
C  2.574519  2.982825  -1.329533
C  2.555804  2.127533  -2.406604
C  3.430755  3.300535  0.881708
C  2.425879  2.119253  3.296042
C  1.784602  3.263800  2.662073
C  2.091189  3.443180  1.305090
C  1.281306  -0.006964  3.503664
C  1.367611  1.323579  3.916582
C  1.208807  -2.806412  3.100161
C  0.063546  -2.099176  3.666593
C  0.079817  -0.698488  3.574422
C  1.166596  -3.832616  0.944900
C  0.691670  -3.880990  2.257001
C  0.750782  -3.641377  -1.344845
C  0.317659  -4.076239  -0.113925
C  0.213962  -1.923370  -2.850214
C  -0.196510  -3.000549  -2.108381
C  0.965275  0.634202  -3.252205
C  -0.378536  0.300776  -3.366000
C  -0.741653  -1.032413  -3.305028
C  1.313401  1.937472  -2.980474
C  1.360182  3.572822  -0.983174
C  0.416382  3.924465  -1.961212
C  0.408987  3.001433  -3.090270
C  1.058333  3.617641  0.368714
C  0.381331  3.290642  3.066374
C  -0.619364  3.488577  2.102386
C  -0.282340  3.684481  0.759513
C  0.136864  2.107860  3.878398
C  -1.089042  0.039758  3.417923
C  -1.064963  1.429535  3.595416
C  -1.154377  -2.772059  3.213405
C  -2.187288  -1.980010  2.683878
C  -2.230265  -0.603868  2.940975
C  -0.758586  -3.961743  2.453289
C  -0.982392  -4.564410  0.042737
C  -1.570588  -4.394002  1.373731
C  -1.556344  -3.294897  -1.983472
C  -1.982362  -4.154561  -0.955708
C  -2.060928  -1.434883  -3.533340
C  -2.494264  -2.622909  -2.789836
C  -1.354080  1.296305  -3.363119
C  -2.691258  0.915710  -3.208519
C  -3.099793  -0.416738  -3.409587
C  -0.981530  2.651779  -3.383332
C  -0.971737  4.113263  -1.550205
C  -1.821922  3.554254  -2.601050
C  -1.290148  3.810300  -0.215531
C  -1.956931  3.332457  2.496175
C  -2.992324  3.391635  1.471420
C  -2.616984  3.523468  0.129689
C  -2.219899  2.182270  3.346278
C  -3.367318  0.141954  2.608779
C  -3.414276  1.521496  2.834353
C  -3.129447  -2.533443  1.811409
C  -4.294869  -1.836317  1.474937
C  -4.435167  -0.464281  1.941917
C  -2.869192  -3.749947  1.178500
C  -3.188658  -3.761732  -0.245657
C  -3.754472  -2.295971  -2.126911
C  -3.905349  -2.663510  -0.774318
C  -4.133955  -0.936751  -2.520743
C  -3.611705  1.854580  -2.736225
C  -4.578726  1.341085  -1.772866
C  -4.624448  -0.048352  -1.546253
C  -3.125236  3.146227  -2.250789
C  -3.571192  3.270170  -0.865223
C  -3.959084  2.335724  1.755661
C  -4.528824  1.635564  0.672631
C  -4.547502  2.216523  -0.605825
C  -5.005776  0.323815  0.857076
C  -4.711952  -1.889247  0.079837
C  -5.098361  -0.537443  -0.319612
