100
# Created by libgraph from Fullerene (http://tinyurl.com/fullerenes)
C  4.064855  -2.856847  0.871518
C  4.483971  -2.890371  -0.527391
C  5.293778  -1.695776  -0.763725
C  5.544433  -1.053768  0.529880
C  4.826699  -1.806559  1.557660
C  5.633554  0.345695  0.615533
C  5.061072  1.050313  1.768126
C  4.360557  0.336250  2.758978
C  4.268645  -1.126847  2.665072
C  5.071177  -0.910669  -1.908363
C  5.074081  0.549970  -1.799472
C  5.412102  1.165524  -0.577219
C  3.567853  -3.335571  -1.507744
C  3.362763  -2.530192  -2.719679
C  4.034165  -1.292661  -2.868474
C  2.698973  -2.940482  1.135092
C  1.819574  -3.508475  0.194496
C  2.255004  -3.853144  -1.096672
C  2.938695  -1.515700  3.122064
C  2.163714  -2.324388  2.269658
C  3.069185  0.847374  3.239591
C  2.252092  -0.310476  3.599968
C  4.513658  2.316306  1.289750
C  3.217512  2.701619  1.660378
C  2.461627  1.885188  2.502576
C  4.702722  2.368971  -0.147071
C  3.923560  1.057876  -2.542138
C  3.088440  1.991222  -1.902295
C  3.570340  2.772456  -0.857959
C  3.275944  -0.078275  -3.193359
C  1.939853  -2.598598  -3.058406
C  1.233565  -1.384042  -3.124894
C  1.887299  -0.157611  -3.097162
C  1.311823  -3.602850  -2.195580
C  0.446206  -3.536992  0.489538
C  -0.472515  -3.552190  -0.512984
C  0.007443  -3.300069  -1.771239
C  0.781076  -2.380983  2.422706
C  -0.014988  -3.255851  1.745472
C  0.898187  -0.219955  3.252804
C  0.152024  -1.345283  3.022845
C  1.065649  2.025923  2.479358
C  0.285776  0.964675  2.908004
C  2.649199  3.830155  1.036556
C  1.246624  4.139667  1.308011
C  0.458329  3.132905  1.879150
C  2.835216  3.880411  -0.406310
C  1.723608  2.070687  -2.195768
C  0.943891  3.143533  -1.738822
C  1.522899  4.167536  -0.982154
C  1.117203  0.978349  -2.796892
C  -0.155174  -1.354663  -3.030436
C  -0.901936  -0.230030  -3.263501
C  -0.274767  0.950345  -2.924892
C  -0.786617  -2.386334  -2.421024
C  -1.836496  -3.506662  -0.183272
C  -2.715700  -2.944250  -1.117715
C  -2.167529  -2.339380  -2.252972
C  -1.309248  -3.571715  2.206966
C  -2.259157  -3.836603  1.120307
C  -1.233075  -1.365097  3.143308
C  -1.940316  -2.573534  3.078965
C  -1.109118  0.996376  2.790479
C  -1.877918  -0.134050  3.098921
C  -0.936993  3.156141  1.715334
C  -1.715506  2.085419  2.181433
C  0.703154  4.726302  0.084478
C  -0.693911  4.726269  -0.123922
C  -1.512717  4.177803  0.948751
C  -0.451779  3.121320  -1.905185
C  -1.240103  4.130153  -1.342345
C  -1.061341  2.011634  -2.499170
C  -2.260926  -0.339326  -3.596239
C  -3.073533  0.820987  -3.238404
C  -2.456636  1.862063  -2.510763
C  -2.949840  -1.539786  -3.103760
C  -4.079179  -2.859831  -0.843856
C  -4.838959  -1.812672  -1.534240
C  -4.278142  -1.144033  -2.646410
C  -3.570337  -3.316782  1.536212
C  -4.490733  -2.878846  0.557496
C  -3.362327  -2.503074  2.742184
C  -3.268362  -0.046375  3.199573
C  -4.030204  -1.262262  2.884610
C  -3.082811  2.013901  1.898591
C  -3.918112  1.086370  2.542801
C  -2.825900  3.888438  0.376719
C  -3.559690  2.787100  0.846759
C  -2.641386  3.822149  -1.065452
C  -3.211614  2.688567  -1.673215
C  -4.365278  0.317690  -2.752320
C  -5.061150  1.041863  -1.767114
C  -4.507504  2.308674  -1.301352
C  -5.550378  -1.048581  -0.510451
C  -5.634284  0.350338  -0.607621
C  -5.296768  -1.680155  0.787305
C  -5.068882  -0.885688  1.924581
C  -5.069192  0.574059  1.804043
C  -4.693805  2.377599  0.135566
C  -5.406933  1.180190  0.577240
