100
# Created by libgraph from Fullerene (http://tinyurl.com/fullerenes)
C  4.602194  0.884584  1.031346
C  4.500110  1.687160  -0.181840
C  4.697989  0.797475  -1.310868
C  5.077223  -0.522527  -0.805773
C  5.051979  -0.462079  0.658082
C  4.592671  -1.663530  -1.475847
C  4.188240  -2.841619  -0.704590
C  4.132590  -2.783344  0.702448
C  4.606552  -1.581295  1.397325
C  3.668023  0.900785  -2.250000
C  3.014919  -0.249443  -2.686770
C  3.631476  -1.498387  -2.569725
C  3.407363  2.577174  -0.297856
C  3.121789  3.146728  -1.546373
C  3.220504  2.176272  -2.625530
C  3.541590  0.977989  1.929020
C  2.745286  2.112466  1.975083
C  2.531241  2.777856  0.776341
C  3.726500  -1.359342  2.543933
C  3.152227  -0.092117  2.707419
C  2.929928  -3.260318  1.395618
C  2.754959  -2.442924  2.590870
C  3.089769  -3.481525  -1.425630
C  1.922794  -3.832662  -0.740015
C  1.796553  -3.531780  0.613325
C  2.794649  -2.689689  -2.605003
C  1.694042  -0.142701  -3.131802
C  0.879708  -1.277883  -3.154670
C  1.425913  -2.536784  -2.881140
C  1.988163  2.251421  -3.397458
C  1.165215  1.116711  -3.435911
C  1.871435  3.881313  -1.737260
C  1.346117  3.513732  -3.048210
C  1.355236  3.511202  0.616205
C  0.967550  3.910550  -0.667341
C  2.079838  2.462449  3.160994
C  0.901714  3.307545  3.011450
C  0.515189  3.718098  1.721484
C  2.055812  0.106417  3.550371
C  1.737555  1.364667  4.063579
C  1.441733  -2.062132  2.902653
C  1.196044  -0.960584  3.699611
C  0.508487  -3.376040  1.139539
C  0.341178  -2.661640  2.318742
C  0.839345  -4.338651  -1.476821
C  -0.438009  -4.487380  -0.789974
C  -0.608539  -3.812572  0.424760
C  0.583629  -3.649099  -2.729543
C  -0.502098  -1.127210  -3.319838
C  -1.355357  -2.199344  -3.038250
C  -0.862952  -3.492091  -2.846789
C  -0.206503  1.253791  -3.674625
C  -1.036872  0.127093  -3.648094
C  -0.036662  3.664797  -3.267529
C  -0.755509  2.532035  -3.838619
C  -0.372970  4.226048  -0.899518
C  -0.889752  4.187750  -2.202142
C  -0.779436  4.225762  1.538756
C  -1.238881  4.471585  0.175189
C  -0.170093  2.711275  3.804675
C  -1.407066  2.557911  3.160045
C  -1.845385  3.546695  2.262384
C  0.375834  1.576940  4.555958
C  0.047059  -0.897149  4.485799
C  -0.440906  0.445338  4.808857
C  -0.934703  -2.414568  2.839826
C  -1.092021  -1.706209  4.046813
C  -1.891356  -3.469630  0.873378
C  -2.051275  -2.770208  2.078351
C  -1.481060  -4.284341  -1.788612
C  -2.777268  -3.916497  -1.369890
C  -3.001404  -3.734519  0.061170
C  -2.708179  -1.941603  -2.826062
C  -3.468026  -2.809042  -2.029785
C  -2.415891  0.284510  -3.845032
C  -3.281398  -0.754462  -3.299588
C  -2.167322  2.696094  -3.502894
C  -3.010419  1.568114  -3.495868
C  -2.212327  3.594308  -2.352967
C  -2.550094  3.853027  0.032443
C  -2.777788  3.136123  -1.155642
C  -2.882018  3.203587  1.295349
C  -2.145662  1.380539  3.330056
C  -3.137585  1.063169  2.402038
C  -3.263415  1.859392  1.265876
C  -1.826608  0.487126  4.356007
C  -2.290346  -0.893046  4.203703
C  -3.322995  -2.331205  2.459767
C  -3.381077  -1.178580  3.355054
C  -4.161275  -2.857179  0.220343
C  -4.301812  -2.108294  1.406257
C  -4.335916  -2.166570  -1.053295
C  -4.155435  -0.117070  -2.327016
C  -4.262911  -0.768519  -1.086233
C  -3.860661  1.312405  -2.336970
C  -3.469654  1.918567  -1.138868
C  -3.671033  1.259506  0.076559
C  -3.922466  -0.085224  2.556595
C  -4.483348  -0.659916  1.331753
C  -4.174181  -0.045557  0.106878
