100
# Created by libgraph from Fullerene (http://tinyurl.com/fullerenes)
C  4.546785  -2.103505  0.442608
C  5.076317  -0.821206  0.002213
C  4.968642  0.098192  1.124168
C  4.607213  -0.668572  2.316513
C  4.362990  -2.049380  1.896637
C  3.786623  -0.066376  3.288812
C  2.742403  -0.854848  3.951006
C  2.513292  -2.195136  3.562371
C  3.332821  -2.794763  2.502247
C  4.295057  1.288179  0.838408
C  3.343666  1.783944  1.731990
C  3.249542  1.273593  3.040388
C  4.675323  -0.361690  -1.270087
C  4.691025  1.021690  -1.548177
C  4.513146  1.905204  -0.402693
C  3.548507  -2.680110  -0.349314
C  3.610998  -2.534457  -1.747416
C  4.181930  -1.274836  -2.225259
C  2.449427  -3.578247  1.640285
C  2.451743  -3.300243  0.258301
C  1.139246  -2.678015  3.378262
C  1.139816  -3.646918  2.284288
C  1.593729  0.027608  4.165505
C  0.336783  -0.404320  3.720613
C  0.117208  -1.721699  3.352083
C  1.961615  1.369798  3.723046
C  2.407798  2.718070  1.270965
C  1.291985  2.998737  2.042699
C  0.979411  2.096139  3.038283
C  3.623618  2.993986  -0.802662
C  2.508354  3.267210  -0.003891
C  3.850630  1.534509  -2.624677
C  3.379021  2.864202  -2.236370
C  3.294524  -0.738332  -3.256417
C  2.937145  0.621401  -3.156750
C  2.420591  -2.815409  -2.551484
C  2.230755  -1.714210  -3.488192
C  1.304070  -3.522148  -0.511404
C  1.273895  -3.214766  -1.856090
C  0.022995  -3.572890  1.437501
C  0.114162  -3.874544  0.104444
C  -1.118321  -2.014544  2.769920
C  -1.171462  -3.016014  1.836496
C  -0.697010  0.504791  3.475853
C  -2.015785  0.104584  3.326067
C  -2.235339  -1.212874  2.965454
C  -0.361918  1.800247  3.174075
C  0.434485  4.062253  1.729856
C  -0.964175  3.905254  2.152462
C  -1.342085  2.728957  2.830234
C  1.425209  3.997622  -0.509233
C  0.438145  4.529514  0.346195
C  2.159416  3.334247  -2.771036
C  1.259881  4.089953  -1.896797
C  1.646205  1.055820  -3.487503
C  1.326776  2.423905  -3.554597
C  0.910903  -1.243802  -3.534702
C  0.638368  0.105269  -3.625978
C  0.008879  -3.125914  -2.434110
C  -0.174822  -2.093673  -3.330049
C  -1.020274  -4.327299  -0.595997
C  -1.047582  -3.938894  -2.002670
C  -2.369361  -3.295133  1.176399
C  -2.339596  -4.017521  -0.030348
C  -3.515705  -1.668719  2.651869
C  -3.571089  -2.723065  1.636337
C  -3.047156  1.045292  3.376511
C  -4.293367  0.682009  2.692357
C  -4.530710  -0.666112  2.332662
C  -2.710184  2.422637  3.008296
C  -1.806771  4.176396  0.996732
C  -2.870688  3.274883  0.803516
C  -3.582018  2.802255  1.911791
C  -0.935984  4.481731  -0.139628
C  -0.109467  3.861178  -2.339249
C  -1.087247  3.751134  -1.325422
C  -0.073861  2.814835  -3.355793
C  -0.691370  0.495483  -3.681336
C  -0.979937  1.760979  -3.213232
C  -1.432829  -1.825722  -3.876756
C  -1.709236  -0.401694  -4.047448
C  -2.410230  -3.503977  -2.338156
C  -2.604252  -2.451404  -3.260331
C  -3.187674  -3.498462  -1.096464
C  -4.438993  -2.247708  0.567967
C  -3.949166  -2.365622  -0.748255
C  -5.060014  -0.993947  1.006338
C  -4.584681  1.749157  1.730625
C  -4.996722  1.424893  0.423137
C  -5.282163  0.030703  0.072400
C  -3.135049  2.749279  -0.460804
C  -4.317041  2.040938  -0.717372
C  -2.140889  2.831296  -1.432841
C  -2.124563  1.887504  -2.448009
C  -3.024664  -0.126673  -3.471778
C  -3.171179  0.974022  -2.606535
C  -3.553225  -1.381013  -2.946474
C  -4.145528  -1.329560  -1.672252
C  -4.869002  -0.178748  -1.312927
C  -4.322685  1.073237  -1.812223
