100
# Created by libgraph from Fullerene (http://tinyurl.com/fullerenes)
C  4.824410  -0.182762  0.911496
C  4.972578  0.475355  -0.376861
C  4.799089  -0.542576  -1.396892
C  4.851511  -1.856480  -0.752631
C  4.877737  -1.634138  0.694892
C  4.076202  -2.901936  -1.293614
C  3.431917  -3.866877  -0.398464
C  3.419954  -3.640834  0.992115
C  4.158125  -2.499401  1.547253
C  3.751827  -0.260005  -2.279634
C  2.811781  -1.253637  -2.552058
C  3.131709  -2.601909  -2.370241
C  4.256345  1.675016  -0.566814
C  4.003698  2.120215  -1.867498
C  3.596952  1.051455  -2.766327
C  3.827055  0.317721  1.748670
C  3.465975  1.666089  1.700656
C  3.690763  2.360902  0.514806
C  3.336963  -1.909920  2.602284
C  3.085883  -0.528579  2.555626
C  2.159145  -3.767194  1.732678
C  2.160845  -2.755979  2.786537
C  2.203642  -4.319552  -1.051042
C  1.003354  -4.362743  -0.330133
C  0.971018  -3.931801  0.993494
C  2.047384  -3.572633  -2.284960
C  1.514028  -0.869370  -2.885557
C  0.468377  -1.798710  -2.832136
C  0.736418  -3.136219  -2.530540
C  2.289419  1.404795  -3.303539
C  1.248261  0.477810  -3.134183
C  3.106304  3.256200  -2.066418
C  1.998856  2.784101  -2.902412
C  3.260104  3.684879  0.376565
C  2.837204  4.099220  -0.963365
C  2.791357  2.255425  2.782507
C  2.059135  3.498028  2.535697
C  2.300280  4.219534  1.346722
C  1.989504  0.026750  3.212869
C  1.941943  1.380440  3.583263
C  0.935884  -2.103725  2.967108
C  0.871148  -0.773600  3.318151
C  -0.260945  -3.526675  1.526555
C  -0.262222  -2.710339  2.641529
C  -0.181657  -4.684931  -1.018030
C  -1.452549  -4.544396  -0.310301
C  -1.463292  -3.807171  0.878663
C  -0.323037  -4.029661  -2.306701
C  -0.856230  -1.353022  -2.933398
C  -1.914154  -2.207766  -2.633423
C  -1.705639  -3.568115  -2.403332
C  -0.076819  0.901476  -3.084083
C  -1.118755  -0.008319  -3.198820
C  0.700425  3.068892  -2.456024
C  -0.355308  2.220934  -2.773887
C  1.499554  4.667923  -0.833815
C  0.453976  4.124577  -1.585377
C  1.173660  4.749972  0.581165
C  0.671429  3.271697  2.947007
C  -0.348493  3.494333  2.003421
C  -0.127206  4.345509  0.919151
C  0.621321  2.007406  3.678939
C  -0.364616  -0.213076  3.582251
C  -0.464607  1.157393  3.420592
C  -1.446984  -2.386046  3.315150
C  -1.484961  -1.019252  3.835329
C  -2.656496  -3.245794  1.364086
C  -2.710975  -2.642179  2.632843
C  -2.452311  -4.162553  -1.301835
C  -3.627728  -3.498690  -0.885560
C  -3.783487  -3.197555  0.535435
C  -3.179257  -1.655801  -2.436323
C  -4.090386  -2.313005  -1.608432
C  -2.419649  0.450308  -3.447050
C  -3.502295  -0.401425  -2.970407
C  -1.681333  2.644260  -2.653442
C  -2.739921  1.826932  -3.077156
C  -0.859106  4.553034  -1.331892
C  -1.956782  3.840471  -1.985320
C  -1.192239  4.701463  0.074321
C  -1.559991  2.784686  2.065587
C  -2.652346  3.146615  1.274907
C  -2.510800  4.105495  0.271594
C  -1.625478  1.621447  2.824337
C  -2.772461  -0.431670  3.470226
C  -2.790520  0.843143  2.875037
C  -3.553750  -1.456980  2.782551
C  -4.620030  -2.003636  0.657251
C  -4.323459  -1.070296  1.667166
C  -4.844138  -1.478653  -0.685251
C  -4.386921  0.418179  -2.146576
C  -4.769201  -0.088138  -0.889792
C  -3.926485  1.803384  -2.228818
C  -3.052098  3.740890  -1.030283
C  -3.856334  2.578701  -1.056807
C  -3.871374  2.466458  1.391489
C  -4.510585  2.156820  0.117160
C  -3.955831  1.276642  2.233298
C  -4.734714  0.269604  1.523545
C  -5.008497  0.783146  0.183484
