100
# Created by libgraph from Fullerene (http://tinyurl.com/fullerenes)
C  3.888032  -3.094611  0.421258
C  3.981218  -3.139665  -1.030110
C  4.416271  -1.803591  -1.408443
C  5.178873  -1.257921  -0.292374
C  4.755035  -2.002698  0.894405
C  5.334908  0.141945  -0.243808
C  5.114744  0.854572  1.015170
C  4.601744  0.162647  2.131560
C  4.424107  -1.295336  2.069596
C  3.447033  -0.975836  -1.978529
C  3.605738  0.409384  -1.917369
C  4.725056  0.957582  -1.289521
C  2.909758  -3.751670  -1.720350
C  2.171165  -2.919609  -2.663411
C  2.275464  -1.529362  -2.498449
C  2.600883  -3.193529  0.955727
C  1.622181  -3.957466  0.300689
C  1.879310  -4.461748  -0.972595
C  3.166092  -1.620805  2.739403
C  2.238747  -2.432015  2.060751
C  3.457588  0.721516  2.855090
C  2.620703  -0.388053  3.302721
C  4.557010  2.170758  0.673644
C  3.350025  2.567917  1.256896
C  2.799661  1.825713  2.292582
C  4.613505  2.312948  -0.774833
C  2.594318  1.251844  -2.380865
C  2.799295  2.635176  -2.427708
C  3.702296  3.179131  -1.417431
C  1.184607  -0.685544  -2.738808
C  1.345100  0.704772  -2.681452
C  0.823596  -3.485779  -2.787721
C  -0.269069  -2.610756  -2.777402
C  -0.085612  -1.234618  -2.906651
C  0.734186  -4.611435  -1.857149
C  0.337286  -4.107517  0.847361
C  -0.631241  -4.873117  0.197825
C  -0.510090  -4.923656  -1.258123
C  0.884365  -2.393364  2.387425
C  -0.006832  -3.367288  1.971291
C  1.238333  -0.195198  3.155677
C  0.385822  -1.266960  2.984137
C  1.493720  2.128199  2.658672
C  0.683563  1.062280  3.003548
C  2.616262  3.644681  0.729609
C  1.555951  4.231909  1.449870
C  0.995949  3.431372  2.532563
C  2.882022  4.051585  -0.580290
C  1.632866  3.509628  -2.477409
C  1.715194  4.441819  -1.362625
C  0.230786  1.543220  -2.798455
C  0.376410  2.929222  -2.674060
C  -1.195918  -0.401915  -3.074726
C  -1.042400  0.978811  -2.903021
C  -1.552540  -3.088514  -2.515177
C  -2.684341  -2.337479  -2.852723
C  -2.463395  -0.964718  -3.291395
C  -1.703630  -4.268110  -1.782611
C  -2.037488  -4.625481  0.526739
C  -2.672636  -4.146432  -0.698615
C  -1.265446  -3.478585  2.586909
C  -2.347384  -4.000562  1.754120
C  -0.980051  -1.162734  3.235285
C  -1.784464  -2.304108  3.298898
C  -0.697617  1.206680  3.012380
C  -1.535471  0.113525  3.249643
C  -0.460427  3.572555  2.504956
C  -1.239357  2.409318  2.601940
C  0.438262  4.801615  0.694389
C  -0.803909  4.442645  1.384160
C  0.486094  4.671939  -0.707274
C  -0.750595  3.754979  -2.602794
C  -0.704115  4.664208  -1.466832
C  -2.172454  1.774148  -2.703011
C  -2.085580  3.165662  -2.643793
C  -3.601256  -0.177965  -2.833078
C  -3.382309  1.145246  -2.433524
C  -3.749731  -2.320821  -1.862254
C  -4.308300  -0.975873  -1.841306
C  -3.415487  -2.950353  -0.654962
C  -3.405624  -2.991060  1.769791
C  -3.732347  -2.343614  0.569104
C  -3.191528  -2.149985  2.944879
C  -2.920139  0.296607  3.346867
C  -3.750567  -0.851907  2.979822
C  -2.552870  2.379030  2.151802
C  -3.482956  1.483455  2.699026
C  -1.893937  4.067220  0.575131
C  -2.854976  3.161635  1.046363
C  -1.962973  4.515558  -0.747598
C  -2.903998  3.833961  -1.638891
C  -4.337515  1.794520  -1.644628
C  -3.992061  3.107459  -1.099242
C  -4.540496  -0.361134  -0.600650
C  -4.926380  0.990107  -0.582535
C  -4.295894  -1.053346  0.595246
C  -4.532548  -0.423108  1.826381
C  -4.583516  1.041136  1.850323
C  -4.047404  2.961847  0.348153
C  -4.824263  1.753266  0.656805
