100
# Created by libgraph from Fullerene (http://tinyurl.com/fullerenes)
C  3.809248  -2.261426  2.047071
C  4.017977  -3.110494  0.882872
C  4.535182  -2.212165  -0.142626
C  5.192205  -1.097415  0.535769
C  4.714053  -1.110469  1.919653
C  5.322226  0.120121  -0.164160
C  5.072614  1.387019  0.524965
C  4.589041  1.383189  1.848871
C  4.392433  0.107190  2.551870
C  3.657144  -1.914910  -1.187867
C  3.723422  -0.663790  -1.816423
C  4.738134  0.240163  -1.498137
C  2.999690  -4.034864  0.550331
C  2.549206  -4.041430  -0.832843
C  2.643651  -2.826743  -1.513538
C  2.485209  -2.007156  2.419447
C  1.474105  -2.916768  2.071694
C  1.772306  -4.077327  1.339180
C  3.125791  0.190051  3.275177
C  2.145479  -0.793393  3.025025
C  3.475615  2.264487  2.208329
C  2.661292  1.571764  3.199838
C  4.474241  2.306832  -0.450385
C  3.281071  2.960151  -0.124859
C  2.788500  2.916356  1.172714
C  4.503804  1.656865  -1.755481
C  2.698302  -0.281016  -2.680786
C  2.698311  0.971836  -3.314533
C  3.538749  2.013515  -2.724815
C  1.656577  -2.461049  -2.424177
C  1.599043  -1.124908  -2.799921
C  1.252564  -4.722465  -0.875743
C  0.359030  -4.480937  -1.948402
C  0.679598  -3.376778  -2.846836
C  0.715973  -4.628233  0.478023
C  0.136093  -2.596235  2.336405
C  -0.876675  -3.329121  1.755737
C  -0.551757  -4.052848  0.623402
C  0.788290  -0.513215  3.248590
C  -0.197033  -1.454949  3.039953
C  1.281270  1.737198  3.048520
C  0.405812  0.782576  3.485190
C  1.504992  3.416228  1.382536
C  0.721787  2.751363  2.305043
C  2.498099  3.567734  -1.118690
C  1.472102  4.483137  -0.790706
C  0.989383  4.441724  0.583687
C  2.662173  3.152624  -2.446523
C  1.397662  1.567144  -3.633847
C  1.408086  2.947499  -3.160363
C  0.382475  -0.587489  -3.157635
C  0.281200  0.786332  -3.307530
C  -0.585876  -2.800087  -3.315730
C  -0.735736  -1.410428  -3.205673
C  -1.084205  -4.388094  -1.701371
C  -1.674420  -3.616487  -2.784079
C  -1.478229  -4.041726  -0.410737
C  -2.196213  -3.222113  2.207665
C  -3.206722  -3.332777  1.159956
C  -2.766987  -3.549426  -0.160331
C  -1.530119  -1.171967  3.377638
C  -2.547887  -2.082746  3.054938
C  -0.861664  1.139185  3.950659
C  -1.868879  0.078858  3.926024
C  -0.654739  2.956529  2.359785
C  -1.442824  2.338090  3.347564
C  -0.473468  4.575868  0.562304
C  -1.236421  3.658882  1.310428
C  0.297378  4.496799  -1.651943
C  -0.876374  4.789912  -0.826494
C  0.236830  3.409009  -2.525757
C  -0.932051  1.367453  -2.963934
C  -0.971858  2.720316  -2.652880
C  -1.986913  -0.824569  -3.015224
C  -2.056680  0.559373  -2.790347
C  -2.939994  -3.028835  -2.547653
C  -3.125315  -1.631669  -2.926552
C  -3.580473  -3.177167  -1.237472
C  -4.188638  -2.268241  1.367348
C  -4.623540  -1.524977  0.256176
C  -4.479708  -2.041760  -1.048469
C  -3.802481  -1.522379  2.565530
C  -3.110435  0.661012  3.421709
C  -3.911584  -0.116990  2.559879
C  -2.829585  2.037723  3.011724
C  -2.551325  3.341855  0.956407
C  -3.296569  2.452022  1.751872
C  -2.134766  4.309957  -1.257196
C  -3.072065  3.831380  -0.245421
C  -2.190285  3.338248  -2.346534
C  -3.216528  1.112260  -2.254243
C  -3.371889  2.497604  -2.126722
C  -4.221930  -1.095217  -2.127355
C  -4.166289  0.245184  -1.723071
C  -5.134047  -0.224907  0.440688
C  -4.990629  0.683383  -0.686703
C  -4.769636  0.516620  1.643389
C  -4.480946  1.896656  1.250529
C  -4.038840  2.974787  -0.921863
C  -4.784190  2.038089  -0.171520
