100
# Created by libgraph from Fullerene (http://tinyurl.com/fullerenes)
C  4.931568  -1.893000  0.424622
C  5.643118  -1.744143  -0.836172
C  6.387118  -0.410507  -0.552981
C  6.258413  0.151159  0.798613
C  5.495755  -0.923100  1.428655
C  5.765113  1.600791  0.933742
C  4.655583  1.834988  1.867842
C  4.209402  0.803130  2.699420
C  4.596089  -0.584639  2.468240
C  5.612960  0.338915  -1.301813
C  5.220165  1.660382  -1.217477
C  5.337398  2.458050  -0.208381
C  4.698621  -2.029586  -1.995650
C  4.146358  -0.848963  -2.463924
C  4.362194  -0.220700  -1.418478
C  3.509916  -2.133369  0.370471
C  2.734104  -2.520274  -0.735854
C  3.301802  -2.619117  -1.986258
C  3.353620  -1.391161  2.599891
C  2.750058  -1.961318  1.479318
C  2.783624  0.706953  3.127001
C  2.401460  -0.648160  3.345288
C  3.563820  2.628436  1.233219
C  2.170909  2.161134  1.327595
C  1.816083  1.307148  2.337419
C  3.961763  3.168461  0.006344
C  3.774389  1.257186  -1.195423
C  2.590543  1.905331  -1.475085
C  2.804951  3.132452  -0.945111
C  3.498431  0.367987  -0.437125
C  2.743631  -0.747530  -2.770978
C  1.802875  -0.397287  -1.734517
C  2.197932  -0.065569  -0.493272
C  2.365034  -1.989318  -2.977038
C  1.318032  -2.761793  -0.645797
C  0.405322  -2.722889  -1.674750
C  0.937765  -2.188042  -2.746702
C  1.371943  -2.329237  1.445826
C  0.681503  -2.941310  0.472324
C  1.025872  -0.921365  3.065585
C  0.501491  -1.899437  2.356920
C  0.430196  0.971224  2.488398
C  0.029021  -0.067269  3.170683
C  1.095294  2.402791  0.382201
C  -0.326056  2.091574  0.714612
C  -0.629871  1.431651  1.795676
C  1.386033  2.931695  -0.788693
C  1.185767  1.451456  -1.700156
C  -0.283376  1.872251  -2.007675
C  0.177296  3.160494  -1.665819
C  1.076454  0.724295  -0.726523
C  0.371502  -0.247606  -2.161337
C  -0.647006  0.522246  -1.723688
C  -0.200330  0.909086  -0.643502
C  -0.096781  -1.302340  -2.845820
C  -1.073060  -2.980343  -1.535510
C  -2.053014  -2.636695  -2.467685
C  -1.530782  -1.567540  -3.110208
C  -0.632193  -3.572921  0.593582
C  -1.562239  -3.597931  -0.497776
C  -0.926332  -2.263931  2.378503
C  -1.469721  -3.242004  1.637726
C  -1.320517  -0.341933  3.601333
C  -1.815896  -1.616048  3.158015
C  -1.996837  1.236366  2.141490
C  -2.396852  0.459361  3.138833
C  -1.397425  2.585641  0.029099
C  -2.907259  2.277104  0.289535
C  -3.047151  1.796065  1.524889
C  -0.961328  3.614520  -0.761265
C  -1.704897  1.923487  -1.127736
C  -2.214432  3.532907  -1.212945
C  -1.272713  1.863352  0.048615
C  -1.975724  0.489860  -2.370144
C  -2.799100  1.381356  -2.287599
C  -2.207123  2.262006  -1.289792
C  -2.448985  -0.586575  -2.996710
C  -3.539263  -2.361461  -2.094747
C  -3.842612  -1.070544  -2.581742
C  -3.015897  -3.437132  -0.116526
C  -4.003814  -2.645559  -0.829451
C  -2.963176  -3.182178  1.241549
C  -3.311170  -1.581597  2.840506
C  -3.861805  -2.226228  1.741059
C  -3.708793  -0.271841  2.954681
C  -4.450039  1.526775  1.800957
C  -4.718759  0.246282  2.062780
C  -4.224029  2.941100  0.030908
C  -5.240981  2.225427  0.876996
C  -3.324681  3.800536  -0.249555
C  -3.419631  2.711892  -0.997305
C  -4.398054  1.012166  -2.051959
C  -4.816922  1.984007  -1.167667
C  -4.753688  -0.305824  -1.837144
C  -5.273063  -2.125383  -0.300744
C  -5.754571  -0.854206  -0.969139
C  -5.194249  -1.872112  1.155517
C  -5.743554  -0.488062  1.399463
C  -5.711669  1.429112  -0.116914
C  -6.270873  0.086492  0.060323
