100
# Created by libgraph from Fullerene (http://tinyurl.com/fullerenes)
C  3.200367  -0.449012  3.155306
C  3.954416  0.585573  2.449926
C  4.737873  -0.066611  1.409072
C  4.444657  -1.496707  1.476845
C  3.691492  -1.750047  2.704811
C  4.004134  -2.088121  0.288249
C  3.021490  -3.088724  0.340474
C  2.693960  -3.703562  1.551705
C  2.834790  -2.875325  2.743116
C  4.741817  0.569095  0.148519
C  4.854116  -0.196950  -1.028797
C  4.484210  -1.605367  -0.942842
C  3.268878  1.753559  2.076174
C  3.852862  2.630494  1.160774
C  4.544581  1.965709  0.063445
C  1.814655  -0.291953  3.228295
C  1.243562  0.972530  3.115239
C  1.962209  1.987145  2.510043
C  1.484775  -2.694856  3.266571
C  0.970241  -1.394298  3.289820
C  1.420281  -4.416046  1.652554
C  0.623468  -3.709325  2.655515
C  2.298582  -3.392162  -0.812189
C  1.317249  -4.395463  -0.825572
C  0.800109  -4.857083  0.462223
C  3.708903  -1.932489  -2.133569
C  2.495237  -2.591725  -1.934827
C  4.275429  0.339044  -2.257939
C  3.712046  -0.770054  -3.021123
C  3.965463  2.467077  -1.179569
C  3.528219  1.509303  -2.102622
C  3.035648  3.700877  0.591821
C  3.071286  3.573347  -0.854641
C  1.302735  3.179508  2.216044
C  1.759248  3.923535  1.132407
C  -0.085531  1.192902  3.476471
C  -0.585609  2.488184  3.631770
C  0.138263  3.539471  2.914753
C  -0.405468  -1.164412  3.248229
C  -0.930765  0.091278  3.540878
C  -0.671881  -3.326659  2.271230
C  -1.240750  -2.157824  2.767268
C  -0.659998  -4.813998  0.376973
C  -1.367180  -4.030014  1.292507
C  0.186009  -4.205231  -1.731802
C  -1.034194  -4.536565  -1.002070
C  1.417515  -2.388681  -2.785033
C  0.211880  -3.009909  -2.459266
C  2.597926  -0.519280  -3.850672
C  1.511206  -1.496214  -3.858758
C  2.317033  1.670890  -2.788482
C  1.978174  0.806873  -3.842697
C  1.792771  3.619811  -1.429283
C  1.401972  2.635718  -2.342810
C  0.883189  4.794931  0.479674
C  0.880518  4.583104  -0.960269
C  -0.850086  4.330007  2.180826
C  -0.503072  4.894876  0.935174
C  -2.013326  2.690117  3.408846
C  -2.119446  3.614901  2.284248
C  -2.300457  0.244631  3.763954
C  -2.860694  1.561304  3.463633
C  -2.614218  -1.923151  2.655773
C  -3.191771  -0.756324  3.184818
C  -2.751058  -3.850747  1.119924
C  -3.400784  -2.790266  1.886011
C  -2.154806  -3.697363  -1.179279
C  -3.206999  -3.749593  -0.258262
C  -0.962995  -2.331797  -2.751910
C  -2.173837  -2.727616  -2.184642
C  0.275770  -0.795998  -4.189849
C  -0.892335  -1.161863  -3.494587
C  0.563885  0.633782  -4.167899
C  0.059912  2.531295  -2.717548
C  -0.347949  1.434766  -3.468412
C  -0.504361  4.496311  -1.403410
C  -0.893009  3.437256  -2.232667
C  -1.355031  4.652041  -0.230091
C  -2.707850  3.133745  1.107548
C  -2.417742  3.741482  -0.117985
C  -3.791607  1.358718  2.358082
C  -3.517292  1.990288  1.138503
C  -4.120817  -0.063024  2.307661
C  -4.314509  -2.090421  0.991625
C  -4.292964  -0.685467  1.060566
C  -4.262273  -2.737272  -0.320540
C  -3.365726  -2.067151  -2.534159
C  -4.377652  -1.951783  -1.486046
C  -1.972592  -0.292107  -3.406702
C  -3.268752  -0.762692  -3.194856
C  -1.684370  1.060447  -3.381451
C  -2.269452  3.225237  -2.446800
C  -2.674916  2.009861  -3.142706
C  -3.118295  3.366781  -1.275270
C  -3.980413  1.435555  -0.064076
C  -4.004419  2.207110  -1.232219
C  -4.338438  0.081295  -0.109515
C  -4.655768  -0.527149  -1.330882
C  -4.216677  0.143048  -2.552373
C  -3.904879  1.521635  -2.516924
