100
# Created by libgraph from Fullerene (http://tinyurl.com/fullerenes)
C  4.222587  0.749482  2.330392
C  4.756340  1.580204  1.260715
C  5.033515  0.664628  0.164290
C  5.192384  -0.675952  0.731480
C  4.695755  -0.620861  2.106766
C  4.904254  -1.789894  -0.081228
C  4.228421  -2.957583  0.491706
C  3.737575  -2.909352  1.811051
C  3.964398  -1.709053  2.626872
C  4.238763  0.820878  -0.974429
C  3.846951  -0.298942  -1.703914
C  4.349547  -1.572294  -1.415945
C  4.110319  2.807430  0.989921
C  3.816213  3.132881  -0.404766
C  3.750495  2.086512  -1.331513
C  2.875267  0.917260  2.655749
C  2.227966  2.126792  2.361791
C  2.916880  3.175638  1.746640
C  2.723403  -1.420976  3.339964
C  2.135832  -0.154865  3.161049
C  2.382104  -3.393166  2.092316
C  1.829567  -2.561002  3.161581
C  3.392104  -3.546697  -0.557433
C  2.059262  -3.885907  -0.283309
C  1.543041  -3.679580  0.996558
C  3.522148  -2.727815  -1.749320
C  2.853065  -0.143691  -2.662188
C  1.988087  -1.216484  -2.880934
C  2.326598  -2.500743  -2.451619
C  3.116759  2.290532  -2.569784
C  2.668070  1.100033  -3.287312
C  2.704127  4.080457  -0.420714
C  1.760474  4.017090  -1.469313
C  2.053906  3.293282  -2.643693
C  2.143855  4.105226  0.923768
C  0.848904  2.232125  2.566518
C  0.109474  3.199617  1.911475
C  0.745057  4.046135  1.003731
C  0.761765  0.024587  3.352656
C  0.179019  1.269674  3.298329
C  0.469913  -2.267366  3.016154
C  -0.063098  -1.067805  3.401591
C  0.154702  -3.613398  1.148207
C  -0.371472  -3.076065  2.301900
C  1.225529  -4.290083  -1.349504
C  -0.212481  -4.410915  -1.100634
C  -0.706431  -3.913952  0.107409
C  1.401587  -3.548307  -2.589370
C  0.721822  -0.956672  -3.389875
C  -0.236610  -1.964807  -3.513991
C  0.069969  -3.278865  -3.136204
C  1.331986  1.363066  -3.805149
C  0.370475  0.363026  -3.619354
C  0.941128  2.711109  -3.390585
C  0.485833  4.606666  -1.296433
C  -0.600450  4.073337  -2.112113
C  -0.330452  2.898924  -2.823512
C  -0.022231  4.735410  0.063953
C  -1.281886  3.191305  2.063678
C  -2.056036  3.739447  1.041960
C  -1.466346  4.512819  0.027698
C  -1.106121  1.478756  3.819045
C  -1.876503  2.531120  3.157423
C  -1.436161  -0.943142  3.629092
C  -1.978404  0.308666  3.969775
C  -1.727849  -3.189399  2.628095
C  -2.276899  -2.045030  3.366763
C  -2.055816  -3.572807  0.259189
C  -2.641749  -3.499551  1.534088
C  -0.916279  -3.932926  -2.286841
C  -2.106722  -3.196314  -2.113542
C  -2.760974  -3.181860  -0.876926
C  -1.554909  -1.635456  -3.886674
C  -2.571076  -2.378678  -3.156123
C  -0.970348  0.681219  -3.514254
C  -1.960999  -0.229684  -3.889353
C  -1.278604  1.868648  -2.875118
C  -1.832138  4.127934  -1.325467
C  -2.723002  3.042008  -1.348537
C  -2.481154  1.950015  -2.182732
C  -3.410057  3.403043  0.936292
C  -3.771158  3.008688  -0.415446
C  -3.249197  2.042248  2.992117
C  -3.993283  2.436194  1.864675
C  -3.273404  0.632899  3.387813
C  -3.556669  -1.699026  2.757249
C  -3.805824  -0.333671  2.512693
C  -3.839480  -2.680719  1.705446
C  -4.063341  -2.683440  -0.772200
C  -4.544335  -2.283441  0.554178
C  -3.698697  -1.481376  -2.890763
C  -4.479504  -1.664921  -1.729788
C  -3.254265  -0.126842  -3.216647
C  -3.372559  0.867727  -2.230212
C  -4.581686  1.800648  -0.340042
C  -4.308561  0.732911  -1.204495
C  -4.683817  1.423934  1.064532
C  -4.510145  0.061963  1.366577
C  -4.984892  -0.896254  0.453556
C  -4.903119  -0.506565  -0.947166
