100
# Created by libgraph from Fullerene (http://tinyurl.com/fullerenes)
C  4.334676  -1.343311  1.572611
C  4.872859  -0.515450  0.503083
C  4.772439  -1.276669  -0.736179
C  4.194648  -2.579771  -0.407858
C  4.132458  -2.693985  1.048339
C  3.084865  -2.980816  -1.161900
C  2.067819  -3.734605  -0.551103
C  2.240967  -4.265259  0.728970
C  3.138935  -3.528449  1.610592
C  4.288998  -0.578043  -1.860325
C  3.562940  -1.261138  -2.857548
C  2.963524  -2.546544  -2.494514
C  4.473369  0.832735  0.465625
C  4.678311  1.566655  -0.703889
C  4.465185  0.821605  -1.941564
C  3.302150  -0.790551  2.327129
C  3.204755  0.589893  2.499875
C  3.789576  1.417292  1.542261
C  2.297644  -2.976705  2.668111
C  2.283061  -1.586986  2.821717
C  1.044835  -4.597339  1.498112
C  0.982946  -3.619731  2.580967
C  0.829782  -3.866012  -1.181681
C  -0.186334  -4.675392  -0.651383
C  -0.134627  -4.912585  0.788751
C  1.636686  -2.614777  -3.098305
C  0.579343  -3.072552  -2.290762
C  2.577711  -0.507843  -3.629986
C  1.400872  -1.359855  -3.803386
C  3.486360  1.558676  -2.728902
C  2.393822  0.824827  -3.229366
C  4.045969  2.878905  -0.836660
C  3.200506  2.813397  -2.029334
C  3.609653  2.803976  1.607518
C  3.565664  3.518959  0.332306
C  2.438867  1.108302  3.556443
C  1.996385  2.500249  3.462902
C  2.548016  3.337647  2.464706
C  1.180736  -0.939766  3.362871
C  1.312444  0.296364  4.013570
C  -0.156283  -2.796092  2.612001
C  -0.062047  -1.490031  3.090740
C  -1.397912  -4.410613  1.316046
C  -1.363776  -3.224835  2.054784
C  -1.579582  -4.358111  -0.994947
C  -2.367750  -4.450433  0.227782
C  -0.734065  -2.648973  -2.495617
C  -1.791506  -3.235630  -1.805980
C  0.153857  -0.764077  -3.588188
C  -0.949709  -1.527530  -3.275400
C  1.103248  1.376195  -3.213855
C  -0.000618  0.605392  -3.525994
C  1.857152  3.149303  -1.864893
C  0.896482  2.650706  -2.723982
C  2.271423  4.195678  0.275906
C  1.406657  3.867448  -0.774171
C  1.660894  4.117937  1.599536
C  0.545346  2.501415  3.659953
C  -0.259909  3.055934  2.655495
C  0.294575  3.811071  1.636241
C  0.140119  1.161951  4.076757
C  -1.186568  -0.679431  3.159383
C  -1.031431  0.659431  3.489226
C  -2.505078  -2.412074  2.132787
C  -2.433691  -1.161583  2.754141
C  -3.539332  -3.665232  0.315489
C  -3.678976  -2.807154  1.484255
C  -3.036904  -2.597829  -1.835239
C  -3.968114  -2.850368  -0.821869
C  -2.228366  -1.082352  -3.613132
C  -3.319842  -1.618415  -2.806030
C  -1.277021  1.181131  -3.606473
C  -2.417109  0.363469  -3.732458
C  -0.297944  3.353048  -2.946426
C  -1.434076  2.566358  -3.422699
C  0.031471  4.118516  -0.698451
C  -0.761024  4.198115  -1.849619
C  -0.539954  4.119413  0.561821
C  -1.623396  2.747996  2.565418
C  -2.517672  3.563952  1.867711
C  -1.920581  4.281856  0.746778
C  -2.026954  1.518294  3.053033
C  -3.579757  -0.353484  2.854107
C  -3.353559  1.087258  2.983376
C  -4.642588  -1.757181  1.150941
C  -4.629198  -0.542114  1.862639
C  -4.690395  -1.691830  -0.305491
C  -4.097914  -0.484925  -2.317022
C  -4.409725  -0.473904  -0.948346
C  -3.563100  0.733675  -2.915358
C  -2.592066  2.928802  -2.611608
C  -3.365404  1.866012  -2.111080
C  -2.206395  4.016214  -1.711375
C  -2.779488  4.085471  -0.422983
C  -3.770106  2.968730  1.407082
C  -3.776695  3.081997  -0.050686
C  -4.206194  1.766526  2.007198
C  -4.734866  0.721867  1.137640
C  -4.358316  0.721203  -0.212061
C  -3.857084  1.896485  -0.798647
