100
# Created by libgraph from Fullerene (http://tinyurl.com/fullerenes)
C  1.855397  -2.106206  3.560438
C  3.070156  -2.226412  2.763462
C  2.918903  -3.391258  1.911935
C  1.713998  -4.110798  2.324581
C  1.097369  -3.352778  3.416720
C  0.909835  -4.704217  1.332912
C  -0.547981  -4.706266  1.485737
C  -1.147853  -4.047824  2.582085
C  -0.307376  -3.334368  3.549016
C  3.118946  -3.091973  0.559012
C  2.166372  -3.474004  -0.385428
C  1.215517  -4.461084  -0.080565
C  3.548095  -1.068863  2.117298
C  4.509403  -1.192106  1.108253
C  4.216043  -2.289441  0.201248
C  1.143686  -0.909287  3.458022
C  1.786893  0.264360  3.069747
C  2.974698  0.178673  2.366527
C  -0.960423  -2.058315  3.842649
C  -0.235220  -0.881089  3.612770
C  -2.357344  -3.242065  2.376321
C  -2.297017  -2.085364  3.260585
C  -1.131909  -4.539215  0.155002
C  -2.141355  -3.584490  -0.020102
C  -2.752497  -2.976970  1.061375
C  -0.045559  -4.448593  -0.812650
C  2.104355  -2.773600  -1.597414
C  0.916647  -2.794606  -2.328985
C  -0.181059  -3.478028  -1.815507
C  4.275300  -1.774820  -1.162735
C  3.175080  -1.967507  -2.005484
C  4.850253  -0.021794  0.301431
C  4.781777  -0.405178  -1.104806
C  3.487890  1.338884  1.789955
C  4.272698  1.208505  0.644124
C  1.182889  1.510667  3.251665
C  1.912007  2.693506  3.116753
C  3.115774  2.601702  2.284545
C  -0.884190  0.337401  3.396636
C  -0.195676  1.542643  3.424325
C  -2.769697  -0.893087  2.681998
C  -2.197807  0.325970  2.981115
C  -3.665750  -1.959586  0.781846
C  -3.710990  -0.900047  1.666492
C  -2.467982  -3.107155  -1.292086
C  -3.724322  -2.552854  -1.569389
C  -4.385506  -1.944638  -0.417458
C  -1.444727  -3.062102  -2.224467
C  0.781751  -2.026251  -3.492482
C  -0.474675  -1.868637  -4.112051
C  -1.633231  -2.499620  -3.486580
C  3.117846  -1.252172  -3.207786
C  1.872927  -1.284507  -3.970090
C  4.234374  0.550080  -1.989344
C  3.598994  0.126473  -3.177126
C  4.383797  2.283886  -0.235639
C  4.241831  1.921459  -1.642077
C  3.056977  3.688796  1.309167
C  3.586760  3.484345  0.014857
C  1.177961  3.892458  2.721051
C  1.723659  4.279105  1.426515
C  -0.899587  2.749599  3.482213
C  -0.225355  3.915546  2.913396
C  -2.875689  1.515369  2.704025
C  -2.283210  2.753356  2.998264
C  -4.559427  0.188280  1.457147
C  -4.089796  1.470914  1.996709
C  -4.937472  -0.653194  -0.834320
C  -5.035811  0.412548  0.095158
C  -3.828052  -1.620772  -2.688982
C  -4.343087  -0.364689  -2.134796
C  -2.773724  -1.591541  -3.633211
C  -0.834926  -0.497727  -4.428777
C  -2.213103  -0.290098  -3.981418
C  1.509759  0.089931  -4.271443
C  0.161922  0.407737  -4.035120
C  2.542884  0.968407  -3.727588
C  3.153067  2.723866  -2.182894
C  2.166713  2.034634  -2.906484
C  2.716889  3.657984  -1.144744
C  0.851838  4.159738  0.341864
C  1.345681  3.761717  -0.896514
C  -1.065162  4.364774  1.802091
C  -0.529521  4.335436  0.510244
C  -2.391515  3.771557  1.963995
C  -4.175699  2.458507  0.929502
C  -3.123125  3.395105  0.816523
C  -4.580795  1.752866  -0.283021
C  -3.531248  0.769784  -2.234082
C  -3.749178  1.874395  -1.400922
C  -2.437312  0.773090  -3.098217
C  -0.177930  1.538654  -3.290367
C  -1.511729  1.808235  -2.994049
C  0.812071  2.332542  -2.722729
C  0.434546  3.354240  -1.858186
C  -1.388070  4.388792  -0.602834
C  -0.861736  3.883430  -1.866508
C  -2.751819  3.885571  -0.450476
C  -3.067635  3.080520  -1.629497
C  -1.890367  3.061158  -2.491866
