100
# Created by libgraph from Fullerene (http://tinyurl.com/fullerenes)
C  4.910142  -1.748754  1.169521
C  4.390960  -2.417309  -0.024075
C  4.918026  -1.721203  -1.194556
C  5.500026  -0.463700  -0.728598
C  5.495370  -0.480286  0.736785
C  5.242268  0.730246  -1.424231
C  4.936217  1.953827  -0.678579
C  4.925063  1.938279  0.738715
C  5.235341  0.698772  1.456342
C  4.185602  -1.762211  -2.397626
C  3.953126  -0.522375  -3.148870
C  4.415781  0.709865  -2.636659
C  3.044008  -2.791946  -0.027938
C  2.347027  -2.900848  -1.239597
C  2.953418  -2.550893  -2.461515
C  4.187663  -1.813602  2.377475
C  2.968446  -2.619972  2.408281
C  2.349510  -2.936466  1.179327
C  4.411490  0.648594  2.670148
C  3.932488  -0.590699  3.150066
C  3.844390  2.602943  1.473617
C  3.500097  1.791249  2.637738
C  3.864822  2.646999  -1.392737
C  2.764857  3.070920  -0.648802
C  2.765350  3.056210  0.723524
C  3.506895  1.857728  -2.569077
C  2.598369  -0.589835  -3.701558
C  1.694440  0.433810  -3.362405
C  2.137908  1.614947  -2.775205
C  2.093054  -1.941624  -3.477320
C  0.977571  -3.207810  -1.216597
C  0.217705  -2.985859  -2.332584
C  0.730931  -2.047308  -3.184200
C  0.978748  -3.246319  1.135498
C  0.326658  -3.518125  -0.044289
C  2.080872  -2.039666  3.411816
C  0.715026  -2.106478  3.107959
C  0.214589  -3.038046  2.251527
C  2.567402  -0.688763  3.681509
C  2.124351  1.548143  2.816861
C  1.681620  0.354618  3.377739
C  1.529292  3.301599  1.299668
C  1.157629  2.421101  2.291425
C  1.539896  3.353160  -1.242111
C  0.647649  4.294486  -0.707518
C  0.655924  4.256396  0.751397
C  1.166946  2.477695  -2.236860
C  0.310919  0.231748  -3.449170
C  -0.600885  1.255740  -3.296409
C  -0.186420  2.343228  -2.543176
C  -0.167114  -1.050346  -3.464595
C  -1.073184  -3.507502  -2.468949
C  -2.001898  -2.603434  -3.162790
C  -1.534638  -1.323318  -3.529277
C  -1.031191  -3.884765  -0.038232
C  -1.737909  -3.986606  -1.253199
C  -1.081486  -3.535247  2.417363
C  -1.720797  -4.012178  1.186727
C  -0.186427  -1.130318  3.451316
C  -1.552427  -1.392081  3.514258
C  -2.032500  -2.656311  3.114248
C  0.300789  0.147603  3.451288
C  -0.198401  2.281955  2.586512
C  -0.607557  1.180854  3.318299
C  -0.734864  4.212831  1.209393
C  -1.142412  3.126964  2.004288
C  -0.754512  4.246149  -1.128804
C  -1.576529  4.503942  0.049611
C  -1.140292  3.173741  -1.950005
C  -1.920991  1.089264  -3.735593
C  -2.918167  1.909400  -3.052327
C  -2.490509  2.827888  -2.074468
C  -2.438807  -0.284199  -3.816668
C  -3.269155  -2.621847  -2.437945
C  -3.963430  -1.407223  -2.268941
C  -3.725344  -0.319672  -3.132913
C  -3.107384  -3.481554  -1.262835
C  -3.096361  -3.512995  1.183536
C  -3.639637  -3.050979  -0.031976
C  -3.285447  -2.676432  2.372181
C  -2.434239  -0.340117  3.822963
C  -3.719084  -0.385653  3.129225
C  -3.967740  -1.450822  2.237339
C  -1.933074  1.041297  3.748391
C  -2.499239  2.792822  2.120231
C  -2.941038  1.852693  3.072141
C  -2.908458  4.036595  0.029509
C  -3.411753  3.321149  1.201345
C  -3.413982  3.320764  -1.144755
C  -4.024605  1.034821  -2.667128
C  -4.569799  1.182204  -1.379289
C  -4.460651  2.409087  -0.702173
C  -4.853070  -1.262695  -1.193729
C  -5.167979  0.087194  -0.738238
C  -4.678491  -2.107021  -0.015913
C  -4.858225  -1.272077  1.168039
C  -4.038920  0.971730  2.683729
C  -4.574037  1.156701  1.396749
C  -5.169582  0.081521  0.720721
C  -4.456027  2.404018  0.756662
