100
# Created by libgraph from Fullerene (http://tinyurl.com/fullerenes)
C  3.997532  -1.977575  1.636031
C  3.980220  -0.765225  2.457893
C  4.625485  0.297124  1.700630
C  4.927605  -0.235500  0.375060
C  4.735828  -1.685584  0.406369
C  4.404964  0.490736  -0.699028
C  3.889519  -0.190314  -1.810747
C  4.153398  -1.549355  -2.003092
C  4.387436  -2.343753  -0.798480
C  4.041442  1.578654  1.797355
C  4.147181  2.476071  0.720872
C  4.319370  1.890772  -0.605168
C  2.777621  -0.429609  3.107134
C  2.626587  0.848663  3.668567
C  3.292250  1.925000  2.939062
C  2.789462  -2.660793  1.493900
C  1.792961  -2.539436  2.445580
C  1.693211  -1.316726  3.080739
C  3.334305  -3.356072  -0.759910
C  2.477332  -3.364812  0.347358
C  3.266378  -2.310444  -2.883563
C  2.647249  -3.340014  -2.048729
C  3.024871  0.479373  -2.675987
C  2.508637  -0.139482  -3.817838
C  2.478881  -1.599516  -3.820946
C  3.399918  2.561861  -1.514593
C  2.597367  1.752948  -2.323159
C  3.185632  3.571687  0.604449
C  2.737516  3.633549  -0.783607
C  2.362061  3.052117  2.842557
C  2.215941  3.720050  1.612445
C  1.283736  1.310631  4.018595
C  1.125031  2.673267  3.517523
C  0.445925  -0.919812  3.529308
C  0.238432  0.423967  3.757983
C  0.845457  -3.560275  2.625285
C  -0.420913  -3.173301  3.243966
C  -0.620323  -1.826052  3.588926
C  1.210667  -3.956135  0.291032
C  0.545205  -4.371340  1.450386
C  1.247648  -3.365264  -2.002960
C  0.577130  -3.958987  -0.937932
C  1.076191  -1.979649  -3.979916
C  0.481478  -2.689150  -2.937273
C  1.223412  0.335215  -4.328102
C  0.335459  -0.808745  -4.447773
C  1.318885  2.151759  -2.706525
C  0.652954  1.473942  -3.732881
C  1.360766  3.825780  -0.961997
C  0.668290  3.140888  -1.970596
C  1.052018  4.477950  1.357561
C  0.674196  4.625722  -0.042543
C  -0.082035  2.989257  2.860940
C  -0.161929  4.157106  2.099555
C  -1.040118  0.884120  3.536948
C  -1.155380  2.088648  2.866808
C  -1.923176  -1.366603  3.866309
C  -2.140186  0.079894  3.848526
C  -1.500390  -3.769611  2.461456
C  -2.610843  -2.952405  2.177446
C  -3.007885  -1.991822  3.123503
C  -0.903352  -4.569793  1.389374
C  -0.739818  -4.405313  -1.090773
C  -1.529785  -4.617892  0.125585
C  -0.894372  -2.636265  -2.721158
C  -1.558232  -3.675061  -2.053428
C  -0.949982  -0.549902  -3.931193
C  -1.553216  -1.459493  -3.055353
C  -0.654465  1.842266  -4.084407
C  -1.544109  0.696592  -4.192384
C  -0.699834  3.356451  -2.168680
C  -1.349114  2.865193  -3.307824
C  -0.781153  4.663159  -0.122975
C  -1.433087  3.970059  -1.154506
C  -1.297290  4.338361  1.196159
C  -2.285631  2.297861  2.081986
C  -2.329315  3.387738  1.211211
C  -3.354496  0.346220  3.084307
C  -3.295538  1.326308  2.076402
C  -3.957645  -0.945410  2.746113
C  -3.262460  -3.036352  0.938430
C  -4.339829  -2.186566  0.633422
C  -4.662494  -1.083048  1.537506
C  -2.797407  -3.913436  -0.055485
C  -2.830014  -3.375712  -1.411043
C  -2.745686  -1.141802  -2.403640
C  -3.349561  -2.079019  -1.552449
C  -2.791143  1.024876  -3.506212
C  -3.253946  0.156009  -2.508027
C  -2.742660  2.449045  -3.173475
C  -2.822355  3.792402  -1.080194
C  -3.475074  2.928873  -2.067199
C  -3.337520  3.463504  0.241059
C  -4.172819  1.279276  0.989638
C  -4.264977  2.350679  0.086902
C  -4.880594  0.103873  0.715087
C  -4.419742  -1.692874  -0.736678
C  -4.804984  -0.289616  -0.682631
C  -4.148729  0.610304  -1.536086
C  -4.305429  1.985115  -1.322090
