100
# Created by libgraph from Fullerene (http://tinyurl.com/fullerenes)
C  4.325974  -2.582638  -0.168559
C  4.541030  -1.793145  -1.371891
C  4.997589  -0.476199  -0.950056
C  5.306155  -0.532810  0.478135
C  4.842704  -1.827464  0.979126
C  5.134980  0.631607  1.249645
C  4.457181  0.554126  2.544277
C  3.949746  -0.676669  3.003196
C  4.187173  -1.899358  2.223450
C  4.279322  0.613876  -1.452909
C  4.034680  1.725846  -0.633705
C  4.677109  1.858256  0.600610
C  3.548764  -1.878172  -2.370416
C  3.329715  -0.783067  -3.232465
C  3.739224  0.535219  -2.747608
C  3.092623  -3.234931  -0.066693
C  2.516043  -3.797706  -1.222211
C  2.730315  -3.027760  -2.447021
C  2.995353  -2.738004  2.330818
C  2.396354  -3.217917  1.143596
C  2.579693  -0.736151  3.513291
C  2.085350  -2.088541  3.270907
C  3.614555  1.745868  2.657255
C  2.233505  1.575647  2.804798
C  1.724079  0.337047  3.202571
C  4.036880  2.678639  1.619860
C  3.067978  2.662866  -1.006796
C  2.829283  3.804117  -0.228857
C  3.148320  3.686915  1.191356
C  2.702700  1.498895  -3.104824
C  2.262155  2.385164  -2.105727
C  2.020926  -0.638776  -3.864216
C  1.662413  0.783786  -3.833950
C  1.440716  -2.886730  -3.121017
C  1.051758  -1.584994  -3.486671
C  1.110200  -4.219984  -1.204879
C  0.460486  -3.709831  -2.408228
C  1.036381  -3.549717  1.121653
C  0.407150  -3.999753  -0.017070
C  0.734258  -2.172500  2.937088
C  0.247314  -3.205188  2.195965
C  0.340447  0.135435  3.151180
C  -0.152766  -1.149664  3.140148
C  1.353969  2.607085  2.437765
C  -0.031281  2.399785  2.498412
C  -0.535673  1.186146  2.936686
C  1.871302  3.786181  1.885302
C  1.517235  4.450300  -0.322265
C  0.965543  4.536374  1.019893
C  0.967818  2.914936  -2.119319
C  0.616710  3.983404  -1.294186
C  0.339395  1.073445  -3.482429
C  -0.007272  2.250793  -2.846435
C  -0.285995  -1.183441  -3.363021
C  -0.647497  0.122651  -3.612542
C  -0.811847  -3.157413  -2.168325
C  -1.239792  -2.028180  -2.831627
C  -0.989512  -3.998378  0.019517
C  -1.624954  -3.611655  -1.140009
C  -1.054792  -3.679259  2.416178
C  -1.691677  -4.204475  1.215894
C  -1.527327  -1.407469  3.124700
C  -1.991877  -2.732494  3.022035
C  -1.918867  0.982312  2.999015
C  -2.414022  -0.329307  3.054530
C  -0.911730  3.342435  1.976812
C  -2.280783  3.300197  2.257150
C  -2.791014  2.074028  2.875749
C  -0.404580  4.229302  1.040020
C  -0.696114  4.490806  -1.324669
C  -1.234245  4.689089  0.011195
C  -1.347675  2.650439  -2.812284
C  -1.723449  3.798053  -2.101247
C  -1.982056  0.479415  -3.826210
C  -2.341646  1.826400  -3.377032
C  -2.594450  -1.665613  -2.799247
C  -3.015028  -0.442954  -3.354495
C  -3.014596  -3.525421  -1.217222
C  -3.515057  -2.458531  -2.084123
C  -3.108650  -3.810534  1.242507
C  -3.773310  -3.498134  0.034681
C  -3.303116  -2.949420  2.416587
C  -3.784160  -0.558561  2.911452
C  -4.190105  -1.853918  2.358639
C  -4.088844  1.790497  2.270056
C  -4.570965  0.466959  2.244023
C  -3.189722  3.661113  1.172755
C  -4.113537  2.539207  1.020896
C  -2.642900  4.275588  0.024796
C  -2.920293  3.668806  -1.276081
C  -3.544143  1.713289  -2.559951
C  -3.543450  2.409420  -1.338329
C  -3.973401  0.318837  -2.565724
C  -4.481964  -1.688203  -1.315534
C  -4.346964  -0.289562  -1.358721
C  -4.685681  -2.352559  -0.027884
C  -4.915605  -1.573001  1.119079
C  -4.986224  -0.118189  0.975735
C  -4.075263  1.817600  -0.181043
C  -4.494681  0.476138  -0.195262
