100
# Created by libgraph from Fullerene (http://tinyurl.com/fullerenes)
C  3.047084  -3.092443  1.778698
C  2.040824  -4.091776  1.440553
C  2.249684  -4.473659  0.056405
C  3.478040  -3.830190  -0.414338
C  4.059964  -3.114829  0.723218
C  3.490895  -3.241418  -1.694922
C  4.248404  -2.002753  -1.913515
C  4.968147  -1.411730  -0.853354
C  4.840182  -1.964068  0.495815
C  1.068288  -4.340097  -0.680669
C  1.051204  -3.539117  -1.816577
C  2.240042  -3.146568  -2.456167
C  0.699691  -3.825828  1.778375
C  -0.309942  -4.646830  1.263544
C  -0.121245  -4.881833  -0.156544
C  2.606116  -1.834090  2.200369
C  1.304193  -1.676773  2.681154
C  0.356999  -2.674026  2.487143
C  4.655113  -0.828304  1.392609
C  3.422320  -0.709130  2.036968
C  5.000627  0.051555  -0.711682
C  5.136412  0.361066  0.701598
C  3.445474  -1.134908  -2.770878
C  3.258430  0.200599  -2.380356
C  4.063056  0.801252  -1.421568
C  2.235229  -1.860488  -3.148845
C  -0.178131  -3.008424  -2.212379
C  -0.185985  -1.795407  -2.871642
C  1.025214  -1.154677  -3.095637
C  -1.381472  -4.575143  -0.833393
C  -1.383459  -3.598273  -1.831119
C  -1.708286  -4.279450  1.472243
C  -2.399938  -4.367909  0.190596
C  -0.964478  -2.437116  2.881696
C  -1.989540  -3.151804  2.253897
C  0.908864  -0.464396  3.234155
C  -0.267380  -0.353230  3.989562
C  -1.253158  -1.420998  3.809454
C  2.950506  0.551742  2.415340
C  1.642815  0.663126  2.883149
C  4.712192  1.641219  1.127274
C  3.738457  1.691477  2.209829
C  3.827461  2.144465  -1.092343
C  4.258278  2.628725  0.145605
C  2.174394  0.932473  -2.853719
C  2.210600  2.329837  -2.930504
C  3.076168  2.972377  -1.947455
C  1.006575  0.232577  -3.094834
C  -1.400607  -1.169523  -3.152324
C  -1.409598  0.214725  -3.313474
C  -0.202911  0.906095  -3.168558
C  -2.609593  -3.129258  -2.332314
C  -2.588061  -1.906895  -3.135260
C  -3.397690  -3.394668  -0.048798
C  -3.699427  -3.008778  -1.371988
C  -3.303676  -2.684106  2.307520
C  -4.024039  -2.748828  1.038938
C  -2.577972  -0.800403  3.735172
C  -3.577543  -1.391420  2.929894
C  -0.972177  0.924373  3.934246
C  -2.371114  0.643612  3.635121
C  0.999740  1.888755  2.864490
C  -0.352282  1.925704  3.167908
C  3.035310  2.973092  2.117308
C  1.663460  3.022587  2.396604
C  3.382597  3.570679  0.834319
C  2.315767  4.053673  -1.315631
C  2.334885  4.156519  0.089754
C  0.938266  3.049353  -2.948458
C  1.008863  4.129338  -1.970605
C  -0.224173  2.270507  -2.930261
C  -2.620825  0.899768  -3.479985
C  -2.638596  2.278580  -2.984808
C  -1.428338  2.806152  -2.513343
C  -3.813488  -1.161974  -2.848685
C  -3.837305  0.242961  -3.014676
C  -4.342258  -1.716323  -1.603020
C  -4.602674  -1.432228  0.791866
C  -4.452699  -0.874516  -0.490942
C  -4.279391  -0.582036  1.933222
C  -2.871154  1.309837  2.508080
C  -3.769766  0.686733  1.655327
C  -1.100259  2.907452  2.535005
C  -2.384115  2.567740  2.142683
C  0.939283  4.178284  2.061303
C  -0.518705  4.132624  2.194434
C  1.257807  4.766736  0.769638
C  -0.131419  4.323619  -1.163309
C  -0.008605  4.969024  0.069792
C  -1.377515  3.789703  -1.532286
C  -3.801010  2.423998  -2.113452
C  -3.714443  3.269989  -0.985162
C  -2.544566  4.140245  -0.850533
C  -4.353200  1.080617  -1.937406
C  -4.323402  0.513475  -0.661589
C  -4.058031  1.315806  0.446345
C  -3.106817  3.409695  1.292441
C  -3.972855  2.714908  0.341010
C  -1.094405  4.823875  1.041505
C  -2.374205  4.445321  0.566136
