100
# Created by libgraph from Fullerene (http://tinyurl.com/fullerenes)
C  3.082476  -1.595694  3.002626
C  4.171365  -1.258610  2.096945
C  4.256383  -2.321204  1.113186
C  3.427701  -3.436040  1.570075
C  2.768456  -3.014138  2.808554
C  2.719957  -4.186283  0.611652
C  1.391763  -4.712013  0.939686
C  0.786610  -4.388199  2.174617
C  1.474644  -3.487357  3.105395
C  4.120389  -1.849282  -0.197722
C  3.192956  -2.444518  -1.054443
C  2.693252  -3.727724  -0.780808
C  4.196109  0.047725  1.577530
C  4.968689  0.325901  0.449596
C  4.830289  -0.696168  -0.576886
C  2.008411  -0.702494  3.074896
C  2.183338  0.641284  2.718920
C  3.355097  1.036198  2.082415
C  0.487985  -2.528382  3.599519
C  0.730017  -1.162339  3.383294
C  -0.641874  -4.054478  2.222629
C  -0.835583  -3.001995  3.211353
C  0.583643  -4.662490  -0.278911
C  -0.709025  -4.129064  -0.205489
C  -1.312338  -3.867450  1.009768
C  1.401438  -4.099651  -1.346450
C  2.685590  -1.693695  -2.123381
C  1.471305  -2.069012  -2.701703
C  0.779152  -3.156047  -2.176500
C  4.439921  -0.035835  -1.815310
C  3.324860  -0.512630  -2.519742
C  4.845406  1.638878  -0.181416
C  4.417850  1.402148  -1.563617
C  3.615033  2.391957  1.842067
C  4.259661  2.689064  0.563346
C  1.141146  1.558644  2.872510
C  1.287059  2.870928  2.438582
C  2.529556  3.361985  2.023394
C  -0.325235  -0.247132  3.343955
C  -0.097576  1.117166  3.324988
C  -1.777185  -2.031185  2.829232
C  -1.610404  -0.704248  3.153247
C  -2.556770  -3.237438  0.970396
C  -2.819960  -2.323560  1.969469
C  -1.380153  -3.703701  -1.354656
C  -2.778821  -3.636166  -1.408349
C  -3.420450  -3.406934  -0.116118
C  -0.597382  -3.200095  -2.379854
C  0.883138  -1.285472  -3.704818
C  -0.421511  -1.555804  -4.163974
C  -1.165405  -2.634548  -3.520542
C  2.791535  0.281660  -3.544667
C  1.536526  -0.132906  -4.163824
C  3.301443  2.101320  -2.050851
C  2.717892  1.711080  -3.270583
C  3.361336  3.596030  -0.136468
C  2.712772  3.105160  -1.272566
C  2.527916  4.251766  0.869760
C  0.134260  3.645809  2.298662
C  0.118427  4.677548  1.361184
C  1.290909  4.825129  0.495039
C  -1.141769  2.005704  3.616401
C  -1.037961  3.325052  3.002915
C  -2.695110  0.175722  3.114387
C  -2.515532  1.531523  3.432211
C  -4.018443  -1.611115  2.014368
C  -3.933279  -0.275393  2.621717
C  -4.460087  -2.388715  -0.290883
C  -4.778326  -1.503396  0.771653
C  -3.383215  -2.725371  -2.377262
C  -4.236926  -1.809706  -1.611685
C  -2.567921  -2.221104  -3.420249
C  -1.300779  -0.402012  -4.251055
C  -2.586820  -0.781957  -3.662997
C  0.660146  1.028043  -4.202546
C  -0.676290  0.785899  -3.833616
C  1.356849  2.145533  -3.569270
C  1.421708  3.534584  -1.579303
C  0.703071  2.833085  -2.542524
C  0.821595  4.576921  -0.862970
C  -1.073665  4.770978  0.532738
C  -0.643102  4.609204  -0.849082
C  -2.288361  3.583171  2.289826
C  -2.202518  4.038243  0.960501
C  -3.217561  2.491849  2.590240
C  -4.586499  0.663986  1.721003
C  -4.001963  1.940707  1.557729
C  -4.929922  -0.069767  0.507072
C  -3.941856  -0.444596  -1.671038
C  -4.427952  0.433901  -0.695608
C  -3.077394  0.044313  -2.646379
C  -1.337716  1.647595  -2.950543
C  -2.625626  1.353763  -2.526293
C  -0.673568  2.729857  -2.385379
C  -1.354185  3.632836  -1.561121
C  -3.198124  3.695606  0.027519
C  -2.734081  3.500964  -1.340445
C  -4.140938  2.620215  0.334599
C  -4.326483  1.823563  -0.876227
C  -3.403388  2.324920  -1.887237
