100
# Created by libgraph from Fullerene (http://tinyurl.com/fullerenes)
C  4.427251  0.348599  1.740522
C  4.463929  1.728621  1.275968
C  4.819921  1.700924  -0.129744
C  5.234373  0.336655  -0.465891
C  5.156256  -0.456355  0.762655
C  4.810264  -0.220940  -1.688406
C  4.492380  -1.652948  -1.757530
C  4.601049  -2.462920  -0.606385
C  4.893459  -1.836960  0.683488
C  3.851230  2.346245  -0.907599
C  3.250555  1.663376  -1.962049
C  3.828266  0.501484  -2.504915
C  3.363824  2.545471  1.587788
C  3.201528  3.765605  0.931730
C  3.389701  3.615472  -0.501511
C  3.200687  -0.163119  2.181087
C  2.173949  0.711447  2.542013
C  2.353548  2.085875  2.424595
C  3.942926  -2.396482  1.637051
C  2.965822  -1.539343  2.149887
C  3.606715  -3.515963  -0.348578
C  3.470636  -3.660386  1.091002
C  3.310041  -1.806052  -2.601011
C  2.254643  -2.603213  -2.131658
C  2.418201  -3.489003  -1.076505
C  2.929331  -0.485882  -3.097821
C  1.980340  2.081017  -2.367703
C  1.130130  1.151871  -2.940304
C  1.565863  -0.161064  -3.062676
C  2.210297  4.163791  -1.165327
C  1.510697  3.361235  -2.073046
C  1.979527  4.535744  1.164946
C  1.345711  4.738556  -0.140037
C  1.457630  2.976212  3.027922
C  1.179924  4.204345  2.280754
C  0.922382  0.216281  2.895451
C  -0.100148  1.107141  3.233754
C  0.177247  2.453691  3.507458
C  1.716925  -2.045473  2.523307
C  0.670621  -1.152715  2.776132
C  2.266787  -4.223108  1.571159
C  1.503181  -3.429491  2.525506
C  1.318072  -4.260091  -0.673816
C  1.279024  -4.756213  0.631581
C  0.966456  -2.437620  -2.627303
C  0.036796  -3.484086  -2.616698
C  0.216420  -4.442671  -1.531229
C  0.597689  -1.152999  -2.979963
C  -0.188532  1.504641  -3.235267
C  -1.144800  0.494390  -3.331714
C  -0.744578  -0.822419  -3.087206
C  0.263991  3.803519  -2.550947
C  -0.555457  2.851523  -3.294967
C  -0.030887  4.476254  -0.276985
C  -0.593710  4.438276  -1.562976
C  -0.268211  4.272656  2.129336
C  -0.807040  4.151292  0.841868
C  -0.848615  3.432929  3.170995
C  -1.422678  0.662599  3.172619
C  -2.479569  1.568950  3.302500
C  -2.171171  2.969136  3.030437
C  -0.648630  -1.605145  2.780426
C  -1.683633  -0.674046  2.855475
C  0.117460  -3.889649  2.472653
C  -0.921870  -2.958658  2.574768
C  -0.012487  -4.752271  1.306064
C  -1.086499  -4.650704  -0.893425
C  -1.165881  -4.577348  0.511938
C  -1.382669  -3.142089  -2.684858
C  -2.084985  -3.893774  -1.650773
C  -1.699480  -1.782267  -2.787795
C  -2.494251  0.815583  -3.535241
C  -3.464159  -0.148584  -3.011978
C  -2.956623  -1.321850  -2.438941
C  -1.954630  3.151772  -2.994691
C  -2.936578  2.148013  -3.141244
C  -1.940687  3.900967  -1.742773
C  -2.091543  3.614973  0.667567
C  -2.555015  3.323480  -0.623770
C  -2.866491  3.292132  1.789490
C  -3.717372  1.259809  2.599874
C  -3.925163  2.301804  1.607531
C  -2.970999  -1.052565  2.478870
C  -3.882303  -0.054507  2.143451
C  -2.228268  -3.392875  2.317982
C  -3.302926  -2.402440  2.324459
C  -2.382233  -4.227307  1.136681
C  -3.075638  -3.194494  -0.930532
C  -3.449456  -3.631931  0.341553
C  -3.624458  -2.000636  -1.426148
C  -4.451189  0.591945  -2.231830
C  -5.046023  -0.018419  -1.107960
C  -4.758074  -1.429989  -0.841709
C  -3.923014  1.944570  -2.083220
C  -3.580130  2.381573  -0.798337
C  -4.197942  1.809637  0.319754
C  -4.892510  -0.342912  1.224460
C  -5.012847  0.668377  0.182312
C  -4.187590  -2.708674  1.202740
C  -4.914014  -1.659807  0.591430
