100
# Created by libgraph from Fullerene (http://tinyurl.com/fullerenes)
C  3.312119  -1.968185  2.594799
C  3.465730  -3.039422  1.618506
C  4.366606  -2.550633  0.591495
C  5.020545  -1.341544  1.098123
C  4.405118  -1.015018  2.387595
C  5.338911  -0.315093  0.187839
C  5.184104  1.084790  0.586509
C  4.677802  1.406176  1.861158
C  4.230009  0.335248  2.754563
C  3.794610  -2.541383  -0.689210
C  3.923312  -1.394364  -1.485223
C  4.894892  -0.428994  -1.200921
C  2.283614  -3.644224  1.156691
C  2.275651  -4.344580  -0.047300
C  2.999193  -3.638972  -1.096603
C  2.025446  -1.445139  2.760772
C  0.909383  -2.241629  2.493861
C  1.073894  -3.432424  1.805533
C  2.935466  0.739598  3.300448
C  1.840698  -0.098504  3.063082
C  3.732688  2.516190  2.007247
C  2.743794  2.156483  3.007311
C  4.678704  1.819842  -0.572424
C  3.546751  2.627340  -0.405215
C  3.212289  3.123432  0.857249
C  4.713969  0.922402  -1.725049
C  2.994649  -1.172645  -2.501462
C  3.040806  -0.016783  -3.298030
C  3.809828  1.119441  -2.789207
C  2.055636  -3.397285  -2.180326
C  1.936959  -2.071639  -2.625154
C  0.983867  -4.786893  -0.581741
C  0.804104  -4.093738  -1.858183
C  0.005154  -4.321383  1.650596
C  -0.115155  -4.893278  0.309963
C  -0.376344  -1.787774  2.773208
C  -1.476804  -2.634691  2.663375
C  -1.334039  -3.897684  2.069955
C  0.545097  0.416418  2.998377
C  -0.562273  -0.431937  2.996936
C  1.460042  2.620406  2.673251
C  0.359925  1.771714  2.774289
C  2.251450  4.144823  0.993250
C  1.324662  3.887600  2.082060
C  2.675303  2.867755  -1.470705
C  1.521906  3.633567  -1.238387
C  1.444058  4.517668  -0.161850
C  2.894830  2.258534  -2.717497
C  1.774329  0.500208  -3.816570
C  1.687210  1.913316  -3.460126
C  0.721802  -1.572484  -3.078989
C  0.641031  -0.274028  -3.543310
C  -0.389775  -3.378295  -2.028642
C  -0.444029  -2.307211  -2.906112
C  -1.442952  -4.515613  -0.177113
C  -1.513556  -3.622355  -1.248471
C  -2.255998  -4.150953  0.976649
C  -2.759453  -2.165154  2.995629
C  -3.742740  -2.521158  1.988254
C  -3.215875  -3.129907  0.839004
C  -1.856685  0.087360  3.064813
C  -2.952724  -0.748680  3.292643
C  -0.924201  2.230367  2.500494
C  -2.041292  1.434994  2.763561
C  -0.011527  4.314319  1.659152
C  -1.079088  3.424083  1.813594
C  0.113723  4.890949  0.321665
C  0.399672  3.396309  -2.025347
C  -0.799003  4.103322  -1.853259
C  -0.982269  4.788211  -0.572522
C  0.462103  2.322349  -2.899064
C  -0.623197  0.287938  -3.534557
C  -0.704294  1.588667  -3.075189
C  -1.670193  -1.903989  -3.467366
C  -1.755358  -0.489426  -3.817645
C  -2.670546  -2.862698  -1.484834
C  -2.881449  -2.251405  -2.730391
C  -3.545986  -2.627357  -0.422760
C  -4.686869  -1.410338  1.841680
C  -5.187349  -1.085721  0.566311
C  -4.677063  -1.818815  -0.591004
C  -4.243757  -0.341702  2.740322
C  -3.325530  1.963126  2.591661
C  -4.417475  1.009973  2.376424
C  -2.290172  3.641304  1.164991
C  -3.474789  3.036752  1.617160
C  -2.274061  4.342807  -0.041510
C  -2.048959  3.404923  -2.179546
C  -2.993593  3.639892  -1.095259
C  -1.924107  2.083515  -2.629614
C  -3.023624  0.024903  -3.303210
C  -2.977199  1.179011  -2.503595
C  -3.795899  -1.112344  -2.802501
C  -4.705045  -0.918177  -1.742097
C  -5.339092  0.315010  0.169794
C  -4.885846  0.432026  -1.215924
C  -5.026462  1.339150  1.084734
C  -4.370326  2.549308  0.584825
C  -3.788792  2.542253  -0.689717
C  -3.910633  1.397872  -1.490674
