100
# Created by libgraph from Fullerene (http://tinyurl.com/fullerenes)
C  3.608389  -1.068739  2.690133
C  4.375698  -0.015090  2.030090
C  5.155393  -0.629391  0.959187
C  4.834191  -2.058866  0.935779
C  3.991832  -2.351917  2.097338
C  4.584959  -2.696373  -0.292064
C  3.544511  -3.725804  -0.380480
C  2.834973  -4.125443  0.777740
C  3.053166  -3.404645  2.038099
C  5.309318  0.082193  -0.249041
C  4.942231  -0.558158  -1.513237
C  4.552162  -1.910900  -1.529723
C  3.690660  1.175406  1.742386
C  4.099525  2.002350  0.704428
C  4.870301  1.477854  -0.335580
C  2.244446  -0.832940  2.899994
C  1.752974  0.474319  2.951128
C  2.504990  1.496011  2.397873
C  1.746033  -3.205750  2.665808
C  1.333642  -1.884263  2.926994
C  1.396945  -4.428300  0.692643
C  0.770019  -4.014385  1.940896
C  2.798853  -3.486983  -1.613996
C  1.407560  -3.502523  -1.542735
C  0.731656  -4.023965  -0.465466
C  3.348197  -2.297819  -2.259117
C  4.145195  0.405885  -2.274167
C  2.827803  0.059892  -2.606545
C  2.443811  -1.280718  -2.613645
C  4.328512  1.712933  -1.660671
C  3.615981  3.318764  0.617634
C  3.220769  3.670092  -0.736798
C  3.247247  2.606742  -1.650452
C  1.985569  2.794610  2.371687
C  2.535174  3.748213  1.501636
C  0.461331  0.743325  3.408810
C  0.059338  2.039022  3.737199
C  0.826486  3.112698  3.105350
C  -0.026159  -1.569011  3.065288
C  -0.461301  -0.292268  3.367595
C  -0.498534  -3.428593  1.788841
C  -0.955759  -2.499406  2.678577
C  -0.658131  -3.908962  -0.517887
C  -1.282975  -3.576095  0.663598
C  0.631152  -2.833516  -2.475728
C  -0.637603  -3.290951  -2.847948
C  -1.340342  -3.933545  -1.742671
C  1.099968  -1.591811  -2.846575
C  1.853100  1.050569  -2.816700
C  0.570408  0.707924  -3.260653
C  0.195178  -0.635489  -3.291017
C  2.128427  2.365786  -2.440932
C  2.018770  4.509618  -0.675852
C  1.044206  4.415180  -1.692905
C  1.247258  3.409938  -2.731808
C  1.569073  4.505016  0.715166
C  -0.116043  3.924611  2.345771
C  0.237561  4.177950  1.009378
C  -1.359627  2.356502  3.584657
C  -1.465280  3.449988  2.631690
C  -1.833903  -0.038105  3.443997
C  -2.254887  1.290294  3.370209
C  -2.315790  -2.410091  2.979884
C  -2.760319  -1.100998  3.455446
C  -2.625760  -3.189268  0.697726
C  -3.230498  -2.846464  1.924635
C  -2.722265  -3.445587  -1.729348
C  -3.291738  -3.006096  -0.517762
C  -1.556497  -2.335651  -3.459627
C  -2.873216  -2.523252  -2.855010
C  -1.118456  -1.008519  -3.619661
C  -0.370518  1.706935  -3.524492
C  -1.682267  1.377533  -3.892246
C  -2.046282  -0.033369  -3.998428
C  -0.060102  3.052289  -3.271334
C  -0.373928  4.360975  -1.336783
C  -1.063318  3.680499  -2.427394
C  -0.692033  3.993341  -0.022873
C  -2.330016  3.156806  1.568474
C  -1.899883  3.336298  0.248817
C  -3.551717  1.571511  2.928273
C  -3.567267  2.555663  1.859288
C  -4.077868  -0.846768  2.866974
C  -4.448414  0.476849  2.556954
C  -4.361675  -1.924054  1.909682
C  -4.483468  -2.273863  -0.555437
C  -4.968007  -1.630482  0.672396
C  -3.647423  -1.359625  -2.660784
C  -4.637294  -1.332418  -1.655251
C  -3.374388  -0.193707  -3.411333
C  -2.708523  2.057021  -3.122353
C  -3.728530  1.074587  -2.782106
C  -2.162992  2.863721  -2.114946
C  -2.620498  2.748720  -0.798112
C  -4.333637  2.000469  0.753550
C  -3.730102  1.944973  -0.508517
C  -5.005502  0.794081  1.241154
C  -5.298629  -0.244435  0.338894
C  -4.992697  -0.046433  -1.074764
C  -4.172882  1.015844  -1.456796
