100
# Created by libgraph from Fullerene (http://tinyurl.com/fullerenes)
C  4.713697  0.585381  1.224915
C  4.657296  1.663322  0.246383
C  5.008812  1.109998  -1.059428
C  5.280540  -0.319681  -0.878265
C  5.186606  -0.625036  0.552529
C  4.815570  -1.246186  -1.827050
C  4.309958  -2.550721  -1.386158
C  4.302326  -2.886551  -0.010156
C  4.724827  -1.889247  0.978372
C  4.311225  1.562906  -2.201214
C  3.765789  0.587465  -3.150257
C  3.992294  -0.791307  -2.953041
C  3.522393  2.478027  0.341045
C  2.924201  3.011252  -0.784441
C  3.326778  2.643904  -2.074226
C  3.616376  0.473693  2.087356
C  2.875286  1.601296  2.446728
C  2.865230  2.664157  1.558809
C  3.790996  -1.952430  2.106251
C  3.152143  -0.765002  2.499655
C  3.161165  -3.614028  0.565973
C  2.914315  -3.105844  1.909573
C  3.133973  -2.860982  -2.195210
C  1.995821  -3.324683  -1.534998
C  2.021158  -3.748047  -0.227660
C  2.880915  -1.731990  -3.087427
C  2.418262  1.032094  -3.515828
C  1.347154  0.154778  -3.275428
C  1.578869  -1.205681  -3.087216
C  2.244783  2.393110  -3.018397
C  1.781195  3.786818  -0.581399
C  0.805748  3.715408  -1.552205
C  0.982822  2.736340  -2.513106
C  2.108111  3.816702  1.818149
C  1.566497  4.462458  0.624179
C  2.067677  1.594287  3.590980
C  1.004468  2.602952  3.666397
C  1.032076  3.725230  2.803382
C  1.944274  -0.788395  3.201646
C  1.505161  0.302570  3.977252
C  1.546703  -2.934161  2.203849
C  1.105538  -1.860731  2.949870
C  0.783936  -4.107086  0.313053
C  0.558963  -3.722150  1.616958
C  0.736825  -3.213968  -2.102679
C  -0.280234  -4.142370  -1.853292
C  -0.226410  -4.659019  -0.490004
C  0.493666  -2.017496  -2.735078
C  0.044040  0.638331  -3.076774
C  -1.049560  -0.217845  -2.995906
C  -0.817258  -1.575014  -2.840563
C  -0.134343  1.972182  -2.771534
C  -0.368890  4.465135  -1.470124
C  -1.538477  3.834082  -2.097815
C  -1.403264  2.502303  -2.536455
C  0.185634  4.864754  0.905884
C  -0.769761  4.925438  -0.141420
C  -0.195392  4.149592  2.121473
C  -0.255330  1.873946  3.802467
C  -1.247601  2.076865  2.825805
C  -1.238544  3.221660  2.023207
C  0.059722  0.481532  4.127662
C  -0.241090  -1.777414  3.261650
C  -0.727383  -0.508666  3.520871
C  -0.667950  -3.963646  2.246229
C  -1.091566  -2.892342  3.149529
C  -1.590858  -4.677367  0.055855
C  -1.812873  -4.338764  1.410577
C  -1.659964  -3.738971  -2.114128
C  -2.475540  -4.105881  -0.964029
C  -1.887023  -2.445354  -2.614947
C  -2.346390  0.296340  -2.902871
C  -3.450461  -0.559229  -2.973717
C  -3.203630  -1.981084  -2.741216
C  -2.516854  1.654564  -2.603436
C  -2.684841  4.100014  -1.236679
C  -3.800785  3.234029  -1.275755
C  -3.772948  2.145271  -2.240141
C  -2.109301  4.379986  0.072982
C  -2.229214  3.379497  1.041139
C  -2.201263  1.085761  2.562296
C  -3.315896  1.350095  1.776078
C  -3.291490  2.470121  0.950071
C  -1.961979  -0.213308  2.974638
C  -2.491390  -2.583530  2.856405
C  -2.873942  -1.237222  2.705051
C  -2.919831  -3.443575  1.758961
C  -3.425732  -3.129880  -0.608249
C  -3.662689  -2.823710  0.737069
C  -4.052838  -2.393911  -1.633861
C  -4.646562  -0.183274  -2.227703
C  -4.936542  -1.276630  -1.296069
C  -4.769572  1.158680  -1.812966
C  -4.265129  2.617796  -0.042145
C  -5.067802  1.450730  -0.409830
C  -4.381401  0.440480  1.741512
C  -5.184001  0.400151  0.521136
C  -4.128666  -0.938581  2.151970
C  -4.580718  -1.817617  1.086007
C  -5.200635  -0.987871  0.052667
