100
# Created by libgraph from Fullerene (http://tinyurl.com/fullerenes)
C  4.613578  0.947130  0.966405
C  4.513855  1.866040  -0.164002
C  4.662670  1.089305  -1.388136
C  4.861892  -0.302928  -0.997058
C  5.075250  -0.336901  0.447797
C  3.997471  -1.241223  -1.573048
C  3.566982  -2.341647  -0.814962
C  4.168191  -2.639879  0.411131
C  4.754755  -1.520675  1.141268
C  3.754947  1.384458  -2.426034
C  3.344727  0.366874  -3.313835
C  3.505789  -1.019368  -2.871131
C  3.487158  2.818671  -0.145602
C  3.172591  3.507444  -1.315501
C  3.195321  2.681140  -2.516695
C  3.563674  0.919728  1.893086
C  2.654407  1.979960  1.943299
C  2.705717  3.004717  0.994442
C  4.016591  -1.409396  2.395350
C  3.359715  -0.208390  2.696838
C  3.424105  -3.454577  1.368545
C  3.193122  -2.604687  2.536194
C  2.465315  -3.086466  -1.240298
C  2.035811  -4.219186  -0.535839
C  2.383760  -4.273076  0.881124
C  2.318696  -1.770061  -3.273960
C  1.725549  -2.614545  -2.317371
C  2.028838  0.486311  -3.932318
C  1.418122  -0.848356  -3.955302
C  1.876910  2.780270  -3.128003
C  1.259415  1.571165  -3.479116
C  1.963856  4.329373  -1.341668
C  1.088322  3.748489  -2.356666
C  1.900098  4.150141  1.131708
C  1.409434  4.746014  -0.109899
C  1.613382  1.962683  2.865696
C  0.570369  2.873049  2.691689
C  0.775616  4.104306  2.069857
C  2.419861  -0.191231  3.741605
C  1.552241  0.977178  3.862784
C  1.872961  -2.407694  2.969804
C  1.599735  -1.387472  3.897027
C  1.120039  -4.271690  1.609415
C  0.833180  -3.150891  2.398173
C  0.632492  -4.621141  -0.653050
C  0.078198  -4.716870  0.686798
C  0.358012  -2.905523  -2.343086
C  -0.175688  -3.937340  -1.574433
C  0.070127  -0.910449  -3.582759
C  -0.484048  -2.037743  -3.014741
C  -0.107537  1.393110  -3.262117
C  -0.719939  0.211887  -3.607299
C  -0.193972  3.369448  -1.934435
C  -0.847741  2.316981  -2.556319
C  -0.045664  4.791425  0.008122
C  -0.791963  3.947852  -0.817946
C  -0.375183  4.734724  1.427552
C  -0.708239  2.451209  3.026483
C  -1.834055  3.244953  2.795918
C  -1.672498  4.319853  1.817262
C  0.204491  0.503744  4.153367
C  -0.841660  1.141370  3.460635
C  0.219761  -0.954456  4.089850
C  -0.483170  -2.695826  2.531613
C  -0.745458  -1.552685  3.275872
C  -1.207854  -4.157530  0.775459
C  -1.529018  -3.297600  1.820743
C  -1.559100  -4.189314  -1.605829
C  -2.116037  -4.358772  -0.274127
C  -1.874962  -2.183383  -2.980564
C  -2.448701  -3.283397  -2.332685
C  -2.101987  0.139049  -3.800825
C  -2.701289  -1.156220  -3.478884
C  -2.214821  2.094470  -2.365165
C  -2.911633  1.180223  -3.173070
C  -2.100697  3.584942  -0.467283
C  -2.835089  2.704986  -1.275319
C  -2.623562  4.016438  0.755030
C  -3.093306  2.551408  2.499991
C  -3.685013  3.194982  1.333880
C  -1.984277  0.455900  3.060148
C  -3.061359  1.147323  2.508468
C  -1.967203  -0.930443  3.071233
C  -2.870525  -2.954461  2.068548
C  -3.098212  -1.685307  2.754490
C  -3.419366  -3.689959  -0.218697
C  -3.823598  -3.041321  0.964098
C  -3.607672  -2.998171  -1.493095
C  -3.893962  -0.900356  -2.678742
C  -4.047516  -1.660864  -1.504792
C  -4.108211  0.547810  -2.627010
C  -4.144880  2.360517  -0.924922
C  -4.700677  1.126467  -1.488759
C  -4.493744  2.401773  0.488408
C  -4.040562  0.407322  1.841711
C  -4.818932  1.023364  0.857947
C  -4.170546  -0.974978  2.066018
C  -4.517045  -1.754384  0.884320
C  -4.555409  -1.066308  -0.340518
C  -5.033515  0.257166  -0.364287
