100
# Created by libgraph from Fullerene (http://tinyurl.com/fullerenes)
C  3.000211  -1.203865  3.270137
C  3.506624  0.164834  3.146664
C  4.536650  0.168647  2.121412
C  4.769547  -1.217679  1.709338
C  3.860401  -2.080093  2.471123
C  5.025048  -1.486926  0.354980
C  4.409081  -2.650440  -0.289031
C  3.595513  -3.530945  0.458257
C  3.315664  -3.237070  1.867775
C  4.408858  1.183906  1.154075
C  4.662480  0.909135  -0.195866
C  5.023007  -0.386511  -0.609981
C  2.561103  1.204700  3.073435
C  2.934766  2.478527  2.610699
C  3.936399  2.451403  1.552144
C  1.619339  -1.386628  3.150280
C  0.746339  -0.343664  3.425558
C  1.215762  0.941022  3.318006
C  1.907712  -3.561141  2.113455
C  1.082231  -2.545734  2.614931
C  2.358718  -4.058256  -0.132707
C  1.380954  -4.238240  0.932586
C  3.954400  -2.228879  -1.613373
C  2.627150  -2.488347  -1.962177
C  1.880582  -3.440549  -1.293493
C  4.421387  -0.864686  -1.845198
C  4.474489  1.902908  -1.173481
C  3.881422  1.424414  -2.415637
C  3.554022  0.061469  -2.443770
C  3.548099  3.429966  0.532517
C  3.828008  3.166685  -0.821807
C  1.881580  3.419391  2.208100
C  2.221891  3.940423  0.886458
C  0.269054  1.938716  3.243752
C  0.568080  2.970617  2.386053
C  -0.621497  -0.556030  3.630258
C  -1.447234  0.451103  4.139580
C  -0.984908  1.809795  3.859226
C  -0.307140  -2.588930  2.452785
C  -1.157911  -1.737364  3.141432
C  0.062212  -3.921915  0.554904
C  -0.826139  -3.359772  1.441972
C  0.564715  -3.632523  -1.719529
C  -0.360517  -3.985401  -0.759013
C  1.964201  -1.701205  -2.899703
C  0.874895  -2.195070  -3.641396
C  0.176731  -3.319675  -3.025609
C  2.317770  -0.359834  -2.941403
C  2.876642  2.389231  -2.852128
C  1.610709  1.932918  -3.253137
C  1.361361  0.561012  -3.340701
C  2.811390  3.434485  -1.842571
C  1.202102  3.890540  -0.084648
C  1.518450  3.791724  -1.439411
C  -0.466242  3.383741  1.570010
C  -0.146619  3.812322  0.291222
C  -2.072323  2.518314  3.184672
C  -1.791065  3.203052  1.985138
C  -2.874573  0.380376  3.828537
C  -3.221368  1.617014  3.125487
C  -2.530291  -2.003178  3.188708
C  -3.411164  -0.848900  3.381806
C  -2.201696  -3.417207  1.207936
C  -3.097018  -2.831291  2.119182
C  -1.697032  -4.232108  -1.079105
C  -2.667747  -3.937676  -0.013317
C  -1.262843  -3.161812  -3.266525
C  -2.200157  -3.666309  -2.328838
C  -0.138127  -1.233286  -4.063951
C  -1.455335  -1.798943  -3.761337
C  0.092859  0.096018  -3.680761
C  0.567498  2.865759  -3.416218
C  -0.786493  2.343806  -3.604838
C  -0.967610  0.961147  -3.475990
C  0.511166  3.917277  -2.411367
C  -1.175610  4.001920  -0.632411
C  -0.885297  4.052628  -2.000494
C  -2.847642  3.587000  1.150392
C  -2.517040  4.000193  -0.211757
C  -3.914504  1.539047  1.903828
C  -3.994024  2.685244  1.092795
C  -4.344695  -0.835345  2.256428
C  -4.457043  0.319365  1.467900
C  -4.227069  -2.111249  1.549173
C  -3.763400  -3.181614  -0.605262
C  -4.329314  -2.123093  0.142952
C  -3.381724  -2.873882  -1.979317
C  -2.360289  -0.970217  -3.073286
C  -3.410317  -1.525016  -2.339855
C  -2.166378  0.415350  -3.023632
C  -1.699392  3.184454  -2.838381
C  -2.761526  2.572546  -2.149606
C  -3.104343  1.245447  -2.409386
C  -3.395985  3.264549  -1.108061
C  -4.394540  2.554712  -0.305495
C  -5.061835  0.219852  0.206117
C  -4.893612  1.314181  -0.746531
C  -4.924102  -1.036031  -0.526585
C  -4.451344  -0.714992  -1.867931
C  -4.325196  0.736645  -1.958165
