100
# Created by libgraph from Fullerene (http://tinyurl.com/fullerenes)
C  2.360129  -2.592400  2.827526
C  2.260176  -3.751626  1.947405
C  3.303748  -3.627438  0.938279
C  4.100487  -2.448273  1.280070
C  3.658744  -1.971178  2.588282
C  4.312448  -1.511104  0.259624
C  4.414718  -0.144982  0.573189
C  4.490207  0.258451  1.911517
C  3.846657  -0.607268  2.890374
C  2.889010  -3.810523  -0.398091
C  3.523275  -3.102193  -1.438597
C  4.341535  -1.946699  -1.072339
C  0.980049  -4.085170  1.485291
C  0.830654  -4.922301  0.385012
C  1.771223  -4.631144  -0.686999
C  1.253279  -1.738389  2.891788
C  -0.021032  -2.228121  2.597082
C  -0.152464  -3.487040  2.027553
C  2.701743  0.142799  3.391251
C  1.425936  -0.375193  3.128421
C  4.133674  1.631197  2.249446
C  2.920189  1.552475  3.063106
C  4.359779  0.821009  -0.443262
C  4.479548  2.186504  -0.141375
C  4.229928  2.608649  1.237211
C  4.187805  -0.939664  -2.114377
C  4.100529  0.415562  -1.755249
C  2.704484  -2.719617  -2.582266
C  3.121428  -1.383664  -2.996738
C  0.975330  -4.218410  -1.835258
C  1.344322  -2.999656  -2.418643
C  -0.504208  -5.057360  -0.198370
C  -0.436581  -4.442646  -1.522010
C  -1.411628  -4.079239  1.888392
C  -1.623469  -4.782091  0.625382
C  -1.146862  -1.420057  2.742687
C  -2.427454  -1.950968  2.582932
C  -2.603325  -3.270174  2.150260
C  0.322905  0.471012  2.980833
C  -0.969676  -0.049510  2.905504
C  1.826609  2.300746  2.610934
C  0.528219  1.828146  2.768777
C  3.215303  3.657568  1.187937
C  2.016482  3.467982  1.879940
C  3.850016  3.162253  -1.033632
C  2.989453  4.007993  -0.204232
C  3.642688  1.340067  -2.707546
C  3.399275  2.724389  -2.294893
C  2.135461  -0.426573  -3.264163
C  2.528833  0.896997  -3.532232
C  0.383209  -2.026971  -2.713415
C  0.783357  -0.756034  -3.123977
C  -1.347510  -3.405535  -1.751514
C  -0.971451  -2.272008  -2.465075
C  -2.796149  -4.165711  0.006723
C  -2.612228  -3.435746  -1.166010
C  -3.524311  -3.439851  1.037485
C  -3.551227  -1.128545  2.720633
C  -4.516764  -1.293059  1.642006
C  -4.229533  -2.271700  0.668268
C  -2.070831  0.808659  2.858313
C  -3.373256  0.305395  2.935844
C  -0.560537  2.683476  2.581263
C  -1.859048  2.166973  2.610119
C  0.966661  4.383157  1.696815
C  -0.339326  4.024622  2.242653
C  1.640559  4.171481  -0.565156
C  0.760405  4.814976  0.324026
C  2.037323  3.064928  -2.701902
C  1.153493  3.575412  -1.726968
C  1.529169  1.958027  -3.511432
C  -0.178319  0.240823  -3.237416
C  0.225467  1.559393  -3.237154
C  -1.948463  -1.325225  -2.802988
C  -1.545192  -0.049435  -3.190930
C  -3.660653  -2.649262  -1.662811
C  -3.307618  -1.622976  -2.635592
C  -4.554806  -2.042548  -0.683140
C  -4.890221  0.042022  1.183001
C  -4.718810  0.347103  -0.174903
C  -4.835316  -0.676576  -1.127015
C  -4.403424  0.997970  2.174106
C  -2.932779  2.993170  2.270757
C  -4.145414  2.329535  1.796435
C  -1.344972  4.624331  1.371652
C  -2.658549  4.101603  1.368989
C  -0.685594  4.779759  0.082400
C  -0.232428  3.378767  -1.839247
C  -1.134512  3.949910  -0.946687
C  -0.695699  2.460790  -2.761974
C  -2.496706  0.964931  -3.400972
C  -2.044560  2.319934  -3.092827
C  -4.221539  -0.497890  -2.440104
C  -3.824264  0.798219  -2.821404
C  -4.366997  1.648988  -0.568191
C  -4.033345  1.920868  -1.905387
C  -4.274002  2.678316  0.385773
C  -3.303608  3.736498  0.106901
C  -2.481858  3.565018  -1.013362
C  -2.987402  2.910891  -2.152340
