100
# Created by libgraph from Fullerene (http://tinyurl.com/fullerenes)
C  4.390944  -0.185236  2.010850
C  4.201562  1.263235  1.986101
C  4.920477  1.798318  0.835515
C  5.425596  0.659971  0.065560
C  5.230608  -0.547794  0.870132
C  5.226723  0.616478  -1.324867
C  4.859518  -0.651095  -1.966747
C  4.799691  -1.845819  -1.209441
C  5.032039  -1.791523  0.235258
C  4.376864  2.921257  0.175803
C  4.129036  2.854552  -1.265874
C  4.491349  1.697019  -1.991084
C  2.910372  1.749275  2.219956
C  2.556410  3.036951  1.829554
C  3.247102  3.643913  0.774469
C  3.278701  -0.998960  2.259533
C  2.102246  -0.458172  2.771956
C  1.914533  0.923276  2.732811
C  4.136701  -2.764878  0.865116
C  3.284744  -2.340178  1.887079
C  3.711289  -2.808536  -1.435755
C  3.413862  -3.475421  -0.174381
C  3.782326  -0.366311  -2.910075
C  2.639410  -1.167212  -2.850839
C  2.614043  -2.355545  -2.155863
C  3.516950  1.070138  -2.883985
C  2.811964  3.449867  -1.505899
C  1.832505  2.639799  -2.087800
C  2.178422  1.464197  -2.748615
C  2.398886  4.147948  -0.290836
C  1.424077  3.662654  2.386857
C  0.655405  4.395438  1.392637
C  1.038435  4.133163  0.070458
C  0.673817  1.463006  3.074874
C  0.470954  2.849295  3.138698
C  1.073221  -1.310128  3.193453
C  -0.195547  -0.778425  3.429606
C  -0.398055  0.587817  3.208501
C  2.343933  -3.244042  2.409451
C  1.291935  -2.692068  3.254330
C  2.056133  -3.758271  0.118573
C  1.702864  -4.107107  1.430178
C  1.376984  -2.983242  -2.061832
C  1.050262  -3.549257  -0.837713
C  1.421380  -0.728633  -3.349650
C  0.454486  -1.618434  -3.839092
C  0.456821  -2.889021  -3.119678
C  1.143650  0.602618  -3.133830
C  0.476335  2.909537  -1.895169
C  -0.500488  2.274185  -2.640217
C  -0.179583  1.018287  -3.127079
C  0.075630  3.679688  -0.827552
C  -0.767436  4.285404  1.727460
C  -1.707569  3.999291  0.719607
C  -1.290864  3.835134  -0.595629
C  -0.872390  3.354189  2.840988
C  -1.680796  1.058395  2.971274
C  -1.913972  2.414221  2.727370
C  -1.265705  -1.623713  3.761542
C  -2.596963  -1.151583  3.380605
C  -2.696820  0.129175  2.821303
C  0.116682  -3.543169  3.086447
C  -1.165717  -3.032458  3.388575
C  0.289450  -4.206976  1.797788
C  -0.297766  -3.742966  -0.523009
C  -0.663832  -3.927122  0.812003
C  -0.928797  -3.251925  -2.829550
C  -1.282254  -3.615272  -1.517997
C  -0.933900  -1.159344  -3.914849
C  -1.789905  -2.230947  -3.420152
C  -1.200771  0.124523  -3.421453
C  -1.790534  2.816332  -2.736054
C  -2.853158  1.849842  -2.998505
C  -2.490795  0.493520  -3.054322
C  -2.223136  3.680094  -1.638747
C  -3.030808  3.719585  1.085990
C  -3.991615  3.322621  0.050613
C  -3.602690  3.321219  -1.303985
C  -3.163119  2.815751  2.214483
C  -3.754751  0.468136  1.987548
C  -4.148665  1.800994  1.845545
C  -3.246922  -2.211833  2.617220
C  -3.920603  -1.860695  1.430945
C  -4.314389  -0.537950  1.210328
C  -2.286045  -3.297154  2.483352
C  -1.990011  -3.700910  1.176674
C  -2.647490  -3.725122  -1.194654
C  -3.009710  -3.765309  0.217419
C  -2.923433  -1.849788  -2.672104
C  -3.557102  -2.801029  -1.864330
C  -3.359407  -0.514888  -2.639874
C  -4.008994  2.217508  -2.182368
C  -4.853581  1.202116  -1.692054
C  -4.604598  -0.183881  -2.098053
C  -4.765028  2.196901  0.582020
C  -5.226674  1.178512  -0.277783
C  -5.169462  -0.221290  0.154477
C  -4.098449  -2.816296  0.419197
C  -4.555202  -2.354194  -0.894087
C  -5.091829  -1.054222  -1.034648
