100
# Created by libgraph from Fullerene (http://tinyurl.com/fullerenes)
C  4.020201  -0.934988  2.451685
C  4.919241  -0.382455  1.451132
C  4.852094  -1.305287  0.328316
C  4.420365  -2.604618  0.850479
C  3.931841  -2.376154  2.211213
C  3.734160  -3.485787  -0.008239
C  2.633559  -4.304225  0.513819
C  2.187154  -4.120081  1.841532
C  2.812623  -3.090921  2.679483
C  4.242852  -0.807550  -0.827416
C  3.454861  -1.648864  -1.610229
C  3.352770  -3.024546  -1.343274
C  4.852335  1.006248  1.211446
C  4.788171  1.458855  -0.176460
C  4.334042  0.558306  -1.146783
C  2.826277  -0.247697  2.687954
C  2.754703  1.125654  2.424514
C  3.873572  1.809571  1.934713
C  1.739397  -2.330835  3.316767
C  1.679914  -0.946035  3.074668
C  0.748944  -4.100239  2.133107
C  0.499474  -3.077528  3.141168
C  1.640483  -4.450979  -0.554387
C  0.288421  -4.228320  -0.252055
C  -0.141494  -4.097378  1.053096
C  2.111608  -3.704685  -1.713060
C  2.666896  -1.067081  -2.598442
C  1.451869  -1.679476  -2.888169
C  1.148910  -2.924288  -2.368070
C  3.889865  1.044280  -2.390298
C  3.029991  0.163491  -3.174208
C  4.175285  2.786559  -0.185120
C  3.320190  3.145642  -1.250089
C  3.324904  2.394575  -2.443500
C  3.642692  3.018840  1.150445
C  1.530631  1.794828  2.534853
C  1.409424  3.107611  2.100408
C  2.366071  3.586854  1.212559
C  0.454846  -0.264786  3.098350
C  0.394768  1.114739  2.948231
C  -0.667646  -2.339986  2.897677
C  -0.724783  -0.983971  3.110905
C  -1.484013  -3.761717  1.232200
C  -1.761534  -2.897778  2.265783
C  -0.655069  -3.970450  -1.255285
C  -2.020667  -4.229859  -1.076820
C  -2.463498  -4.141686  0.310070
C  -0.197974  -3.279613  -2.362087
C  0.468288  -0.961861  -3.548641
C  -0.729226  -1.542558  -3.984474
C  -1.067394  -2.820168  -3.359816
C  1.926822  0.962650  -3.700872
C  0.647957  0.403631  -3.581883
C  2.089091  2.334800  -3.221679
C  2.396217  4.205363  -1.079703
C  1.180915  4.145972  -1.882215
C  0.984125  2.983385  -2.647712
C  1.992605  4.547942  0.278537
C  0.288606  3.872855  2.447313
C  -0.195378  4.779829  1.407438
C  0.598905  4.991454  0.254685
C  -0.828402  1.788611  3.068750
C  -0.878325  3.188601  3.014810
C  -1.968717  -0.351344  3.153656
C  -2.016053  1.044912  3.114708
C  -3.059759  -2.477438  2.544996
C  -3.148099  -1.121298  3.097086
C  -3.722073  -3.388609  0.346161
C  -4.043985  -2.592752  1.471637
C  -2.975433  -3.486017  -1.897449
C  -3.885969  -2.794540  -0.979565
C  -2.500358  -2.809570  -3.043781
C  -1.920728  -0.698451  -3.947131
C  -2.985872  -1.453207  -3.298411
C  -0.473631  1.173141  -3.336816
C  -1.754586  0.635799  -3.521972
C  -0.292329  2.409306  -2.740442
C  0.066093  4.616446  -1.052855
C  -1.111927  3.861401  -1.057948
C  -1.373478  2.996774  -2.105359
C  -1.609412  4.464306  1.221489
C  -1.991011  3.863137  0.020677
C  -2.069399  3.792191  2.429495
C  -3.252851  1.681944  2.994994
C  -3.242949  3.007485  2.382170
C  -4.301656  -0.479214  2.478837
C  -4.341082  0.926442  2.385659
C  -4.589154  -1.250699  1.274308
C  -3.998558  -1.397717  -1.083487
C  -4.377071  -0.634181  0.034373
C  -3.661220  -0.755425  -2.284169
C  -2.879992  1.388378  -3.149999
C  -3.907264  0.617476  -2.460190
C  -2.689935  2.636465  -2.411396
C  -3.201505  3.159291  -0.076572
C  -3.653270  2.666607  -1.316390
C  -3.912058  2.852206  1.091703
C  -4.586228  1.554608  1.091317
C  -4.469076  0.763189  -0.064420
C  -4.362936  1.392264  -1.312033
