100
# Created by libgraph from Fullerene (http://tinyurl.com/fullerenes)
C  4.423874  -0.719904  1.804641
C  4.426700  0.742615  1.796521
C  5.164613  1.191903  0.622168
C  5.456847  0.006996  -0.186644
C  5.159897  -1.173931  0.626838
C  5.145181  0.009064  -1.556634
C  4.539077  -1.183000  -2.162003
C  4.406980  -2.377570  -1.416601
C  4.775556  -2.378360  0.001004
C  4.757230  2.395839  0.006504
C  4.408638  2.389204  -1.415822
C  4.526426  1.194184  -2.161796
C  3.223232  1.397657  2.079198
C  3.048680  2.736687  1.741029
C  3.787243  3.269630  0.679570
C  3.224740  -1.388128  2.082077
C  2.128732  -0.695186  2.583980
C  2.130550  0.702515  2.585314
C  3.832789  -3.257530  0.697968
C  3.064812  -2.731455  1.743056
C  3.190237  -3.194589  -1.542225
C  3.012442  -3.926398  -0.293943
C  3.400744  -0.735379  -2.955168
C  2.162444  -1.348633  -2.719362
C  2.056657  -2.563787  -2.057458
C  3.390685  0.729470  -2.954597
C  3.194677  3.200504  -1.566978
C  2.048299  2.568907  -2.061844
C  2.159504  1.352545  -2.723004
C  2.994356  3.945961  -0.331345
C  2.041007  3.503592  2.358610
C  1.393595  4.427073  1.440420
C  1.675872  4.184551  0.092986
C  0.979598  1.405663  2.956348
C  0.975412  2.806815  3.070240
C  0.980350  -1.404535  2.943914
C  -0.212574  -0.694148  3.061395
C  -0.209737  0.692164  3.064773
C  2.050933  -3.521748  2.325394
C  1.004173  -2.807710  3.049327
C  1.683414  -4.185154  0.100436
C  1.389925  -4.463031  1.433432
C  0.772349  -3.058178  -1.774965
C  0.622421  -4.009302  -0.781756
C  0.980312  -0.683334  -3.003685
C  -0.235545  -1.330149  -3.093646
C  -0.366049  -2.494828  -2.355880
C  0.980906  0.679524  -2.997620
C  0.760391  3.061762  -1.777829
C  -0.375500  2.491827  -2.354253
C  -0.235857  1.329472  -3.090150
C  0.608549  4.008304  -0.778463
C  -0.016931  4.568296  1.826029
C  -1.003728  4.825572  0.839666
C  -0.613975  4.650553  -0.555187
C  -0.286909  3.501939  2.788858
C  -1.418668  1.368348  3.016066
C  -1.395373  2.676796  2.553339
C  -1.418817  -1.375704  3.014261
C  -2.637288  -0.745295  3.282645
C  -2.626261  0.714863  3.294385
C  -0.267695  -3.487225  2.779475
C  -1.385157  -2.675356  2.539305
C  -0.017947  -4.567291  1.824337
C  -0.608176  -4.650001  -0.586168
C  -0.981465  -4.829963  0.817394
C  -1.637379  -2.983216  -2.063831
C  -1.792838  -4.145362  -1.296110
C  -1.308012  -0.718126  -3.759930
C  -2.638890  -1.187185  -3.388728
C  -2.749896  -2.216607  -2.435644
C  -1.322154  0.747078  -3.759409
C  -1.645500  2.981553  -2.059974
C  -2.763046  2.219507  -2.432282
C  -2.661181  1.183914  -3.380404
C  -1.782737  4.149853  -1.293485
C  -2.335793  4.227999  0.958213
C  -2.916159  4.166540  -0.374349
C  -2.447515  3.076910  1.736756
C  -3.768279  1.178115  2.513475
C  -3.564773  2.240182  1.613526
C  -3.785181  -1.188044  2.500411
C  -4.468519  0.001899  1.997334
C  -2.440721  -3.083375  1.730106
C  -3.567447  -2.254938  1.607489
C  -2.312779  -4.243117  0.963608
C  -2.911343  -4.172131  -0.363338
C  -3.966369  -2.406045  -1.773155
C  -3.978243  -3.272483  -0.593175
C  -3.480858  -0.009542  -3.169992
C  -4.345642  -0.002507  -2.057585
C  -4.750716  -1.214482  -1.467874
C  -3.974813  2.423966  -1.768273
C  -4.748314  1.218174  -1.482545
C  -3.987705  3.265216  -0.573596
C  -4.430232  2.405261  0.526285
C  -4.863802  -0.005844  0.646239
C  -5.026853  1.204914  -0.050921
C  -4.426505  -2.436406  0.519301
C  -5.027199  -1.225663  -0.036022
