100
# Created by libgraph from Fullerene (http://tinyurl.com/fullerenes)
C  2.464338  -3.732553  1.488975
C  1.350615  -4.520254  0.973692
C  1.584154  -4.732480  -0.442286
C  2.918724  -4.224983  -0.767016
C  3.527609  -3.767230  0.483870
C  3.092165  -3.475053  -1.948276
C  4.046477  -2.360385  -1.962008
C  4.780031  -2.036287  -0.799777
C  4.480065  -2.729107  0.453985
C  0.481288  -4.310597  -1.191609
C  0.649565  -3.351009  -2.181895
C  1.913719  -3.070311  -2.723986
C  0.041172  -4.109067  1.291864
C  -1.039607  -4.695850  0.625093
C  -0.803383  -4.737881  -0.806297
C  2.178084  -2.486734  2.055926
C  0.881685  -2.203407  2.495847
C  -0.181001  -3.023152  2.138602
C  4.398708  -1.701392  1.486398
C  3.153082  -1.481073  2.076618
C  5.032655  -0.628427  -0.457230
C  5.096354  -0.520384  0.990891
C  3.445973  -1.271233  -2.727937
C  3.464381  0.016559  -2.178415
C  4.286815  0.348591  -1.113467
C  2.145877  -1.715984  -3.220445
C  -0.455321  -2.566233  -2.511678
C  -0.235117  -1.275021  -2.952077
C  1.070184  -0.821039  -3.088663
C  -1.959689  -4.133455  -1.468148
C  -1.757257  -3.008999  -2.271993
C  -2.384518  -4.167718  0.836764
C  -3.005211  -3.962064  -0.466176
C  -1.478678  -2.652723  2.514302
C  -2.558176  -3.138267  1.769739
C  0.622366  -1.018352  3.172002
C  -0.573543  -0.818445  3.878519
C  -1.676524  -1.720494  3.547800
C  2.834136  -0.218003  2.583316
C  1.523860  0.021620  2.984236
C  4.826884  0.748592  1.558049
C  3.779361  0.816547  2.568939
C  4.245306  1.662948  -0.630172
C  4.615691  1.912570  0.692431
C  2.558800  0.980647  -2.601616
C  2.868017  2.339039  -2.543627
C  3.731116  2.703591  -1.426771
C  1.290554  0.545512  -2.930450
C  -1.315024  -0.410194  -3.101301
C  -1.081429  0.961755  -2.977107
C  0.227816  1.446436  -2.949116
C  -2.865877  -2.268206  -2.715603
C  -2.610511  -0.927592  -3.238583
C  -3.858089  -2.840167  -0.571969
C  -4.008212  -2.188448  -1.810669
C  -3.810310  -2.526577  1.862480
C  -4.484855  -2.330668  0.582270
C  -2.906498  -0.924712  3.511108
C  -3.959074  -1.309320  2.654868
C  -1.101866  0.542598  3.904907
C  -2.510699  0.481271  3.524689
C  1.047409  1.315205  3.049636
C  -0.308208  1.494399  3.253690
C  3.257837  2.187598  2.583261
C  1.881716  2.390631  2.752291
C  3.812069  2.882061  1.428110
C  3.093405  3.812156  -0.715510
C  2.940804  3.705802  0.679092
C  1.771604  3.300534  -2.597727
C  1.936630  4.245168  -1.501902
C  0.469099  2.816321  -2.793265
C  -2.152400  1.817192  -2.737178
C  -1.974913  3.201773  -2.685805
C  -0.602133  3.711140  -2.695091
C  -3.696466  -0.060430  -2.796404
C  -3.385414  1.253139  -2.417265
C  -4.508317  -0.813312  -1.842804
C  -4.991671  -0.962272  0.546621
C  -4.829713  -0.193667  -0.620357
C  -4.599766  -0.314872  1.793058
C  -2.908365  1.294607  2.446653
C  -4.025327  0.955825  1.681521
C  -0.874952  2.579488  2.619599
C  -2.128616  2.390972  2.056307
C  1.327720  3.653305  2.482043
C  -0.133055  3.754999  2.441790
C  1.868018  4.353399  1.324954
C  0.742504  4.607657  -0.848252
C  0.735431  4.845926  0.537636
C  -0.466311  4.639943  -1.581413
C  -2.714644  3.916885  -1.654460
C  -1.703825  4.567711  -0.817730
C  -4.270543  1.965854  -1.607712
C  -3.804059  3.239765  -1.055477
C  -4.907619  1.213746  -0.537930
C  -4.519388  1.845224  0.716466
C  -2.519267  3.220716  1.008484
C  -3.759575  3.054051  0.388838
C  -0.493333  4.553697  1.277219
C  -1.593519  4.140921  0.507196
