100
# Created by libgraph from Fullerene (http://tinyurl.com/fullerenes)
C  1.529298  -4.590677  0.760921
C  1.436559  -4.879987  -0.663617
C  2.487187  -4.077541  -1.290364
C  3.420255  -3.644949  -0.255906
C  2.872049  -4.061183  1.030966
C  3.901746  -2.331442  -0.410572
C  4.111010  -1.510135  0.708767
C  3.932341  -2.030248  1.998246
C  3.091416  -3.219725  2.141865
C  2.095908  -3.089566  -2.198766
C  3.041936  -2.175778  -2.681749
C  4.071013  -1.827589  -1.710361
C  0.138004  -4.920953  -1.228428
C  -0.138412  -4.018740  -2.340312
C  0.745395  -2.944702  -2.507340
C  0.446610  -3.918606  1.331773
C  -0.845051  -4.081532  0.808759
C  -1.031114  -4.816980  -0.361128
C  1.929901  -2.809262  2.920839
C  0.663899  -2.984355  2.337909
C  3.567955  -1.107030  3.066781
C  2.212024  -1.478914  3.468187
C  4.415956  -0.145532  0.544956
C  4.559313  0.683344  1.667358
C  3.905404  0.254484  2.901253
C  4.389119  -0.414072  -1.872717
C  4.493692  0.407845  -0.740319
C  2.572387  -0.930690  -3.277710
C  3.520913  0.116672  -2.912205
C  0.288062  -1.676711  -2.865839
C  1.209947  -0.654174  -3.121165
C  -1.576508  -3.721160  -2.327699
C  -1.986705  -2.388035  -2.458764
C  -1.079141  -1.400779  -2.832476
C  -2.160943  -4.442444  -1.199662
C  -1.939051  -3.407506  1.374855
C  -3.227440  -3.589523  0.869006
C  -3.302614  -3.911924  -0.552946
C  -0.388869  -2.134286  2.653538
C  -1.707841  -2.455248  2.361948
C  1.223165  -0.503285  3.300455
C  -0.101398  -0.875203  3.114701
C  2.884855  1.257554  3.189108
C  1.545842  0.841655  3.170303
C  4.316366  2.118133  1.518058
C  3.184180  2.440820  2.383235
C  4.573211  1.801934  -0.925211
C  4.383464  2.680646  0.226155
C  3.014392  1.406558  -2.683000
C  3.815101  2.353096  -2.041250
C  0.768944  0.669031  -3.084795
C  1.685992  1.714622  -2.971906
C  -1.531645  -0.097195  -3.036961
C  -0.592147  0.935274  -3.020417
C  -3.281298  -2.004210  -2.098494
C  -3.829300  -0.790156  -2.538654
C  -2.908638  0.175101  -3.123765
C  -3.987002  -2.786084  -1.181527
C  -4.235603  -2.565594  1.152562
C  -4.651702  -2.014120  -0.135539
C  -2.754828  -1.732311  2.958886
C  -4.030091  -1.695950  2.243400
C  -1.137455  0.040875  3.227146
C  -2.458237  -0.374283  3.420892
C  0.509838  1.740119  2.875486
C  -0.825234  1.362932  2.962155
C  2.096128  3.087273  1.785173
C  0.828376  2.960446  2.319649
C  3.384851  3.681529  -0.162182
C  2.204698  3.761598  0.579564
C  3.215005  3.614225  -1.610799
C  1.256442  3.050431  -3.027572
C  1.976698  3.998193  -2.176939
C  -1.023480  2.228582  -2.781096
C  -0.172815  3.330267  -2.886605
C  -3.320871  1.504391  -2.677786
C  -2.302144  2.372817  -2.276066
C  -4.677671  -0.078349  -1.591610
C  -4.465853  1.355435  -1.781733
C  -4.687492  -0.614315  -0.294659
C  -4.403961  -0.288355  2.097898
C  -4.644440  0.237831  0.818225
C  -3.512628  0.507514  2.932996
C  -1.833498  2.262521  2.624643
C  -3.125000  1.762921  2.425769
C  -0.118860  3.975153  2.154751
C  -1.523249  3.608344  2.367569
C  1.067465  4.411312  0.073851
C  -0.026211  4.730749  0.911309
C  0.977937  4.623453  -1.306820
C  -0.340785  4.362608  -1.871025
C  -2.483159  3.325034  -1.283364
C  -1.411205  4.172092  -0.969058
C  -4.589442  2.212174  -0.668888
C  -3.665315  3.342173  -0.541622
C  -4.748921  1.635335  0.664750
C  -4.003209  2.471053  1.601586
C  -2.310790  4.255866  1.320335
C  -3.506428  3.640350  0.877360
C  -1.356557  4.729023  0.313491
