100
# Created by libgraph from Fullerene (http://tinyurl.com/fullerenes)
C  3.864576  1.049732  2.535066
C  3.672514  2.375568  1.962483
C  4.311306  2.387695  0.659862
C  5.020098  1.118868  0.481593
C  4.824230  0.325581  1.697821
C  4.984949  0.494700  -0.780171
C  4.903050  -0.967659  -0.866081
C  4.836153  -1.744457  0.308362
C  4.749961  -1.081909  1.611027
C  3.446307  2.847519  -0.339904
C  3.248436  2.088647  -1.491564
C  4.137805  1.056028  -1.836085
C  2.374369  2.928882  1.995026
C  2.109093  4.080842  1.244761
C  2.679662  3.999774  -0.089533
C  2.717553  0.361209  2.922803
C  1.562554  1.045109  3.270849
C  1.327976  2.261209  2.640684
C  3.716210  -1.773484  2.382112
C  2.645033  -1.017160  2.852861
C  3.955511  -2.916374  0.358465
C  3.351364  -2.995436  1.676324
C  4.009588  -1.301532  -1.973660
C  2.985523  -2.241308  -1.750822
C  3.072166  -3.149220  -0.699492
C  3.616119  -0.055493  -2.622650
C  2.075098  2.292647  -2.228609
C  1.607735  1.261622  -3.034023
C  2.282023  0.050727  -3.019528
C  1.638352  4.360480  -1.048150
C  1.315837  3.455094  -2.062958
C  0.733420  4.552772  1.107521
C  0.493858  4.864287  -0.295749
C  0.015032  2.715322  2.528952
C  -0.281795  3.841416  1.756243
C  0.618755  0.440861  4.116574
C  -0.741212  0.963989  4.043595
C  -1.012622  1.949833  3.082515
C  1.419223  -1.606196  3.147506
C  0.546530  -1.017139  4.071119
C  1.996505  -3.387972  1.633067
C  1.035861  -2.700867  2.385365
C  2.176287  -4.228502  -0.619580
C  1.609164  -4.374789  0.711616
C  1.803681  -2.207505  -2.501484
C  0.840106  -3.209315  -2.380714
C  1.068611  -4.322174  -1.566460
C  1.533021  -1.083507  -3.268113
C  0.403137  1.386080  -3.734088
C  -0.178153  0.267596  -4.362011
C  0.463971  -1.030839  -4.164598
C  0.158959  3.672905  -2.824248
C  -0.304164  2.595687  -3.695568
C  -0.804746  4.575993  -0.771556
C  -0.998853  4.219759  -2.122585
C  -1.614783  4.197711  1.518110
C  -1.890680  4.553622  0.131935
C  -2.303072  2.108845  2.577246
C  -2.686036  3.311723  1.974021
C  -1.659292  -0.171684  4.084175
C  -2.783832  -0.162852  3.240420
C  -3.166898  1.013173  2.586818
C  -0.862220  -1.391489  4.027055
C  -0.321259  -3.007912  2.274180
C  -1.262696  -2.353356  3.084045
C  0.184169  -4.669326  0.570323
C  -0.739740  -3.871503  1.259503
C  -0.075445  -4.878690  -0.853762
C  -0.406680  -3.021305  -2.987680
C  -1.518502  -3.747810  -2.539166
C  -1.363290  -4.616625  -1.369157
C  -0.583500  -2.026079  -3.967329
C  -1.605790  0.100796  -4.141995
C  -1.848049  -1.309379  -3.861777
C  -1.725885  2.408897  -3.450210
C  -2.145311  1.076768  -3.294177
C  -2.154052  3.393336  -2.464926
C  -3.072362  3.804616  -0.275420
C  -2.937360  2.970101  -1.388101
C  -3.696359  3.253990  0.924753
C  -4.361669  1.055910  1.862912
C  -4.478198  2.084581  0.834124
C  -3.456506  -1.367258  2.977813
C  -4.445803  -1.394388  1.897640
C  -4.849405  -0.187921  1.288893
C  -2.633545  -2.568393  2.878203
C  -2.078134  -3.844978  0.863512
C  -3.067893  -3.303261  1.696788
C  -2.421642  -4.250807  -0.430952
C  -2.756693  -2.992399  -2.394431
C  -3.331302  -3.332354  -1.101204
C  -2.647406  -1.643190  -2.760096
C  -2.989762  0.710434  -2.237078
C  -3.231624  -0.642781  -1.970714
C  -3.501250  1.690291  -1.376727
C  -4.497963  1.378061  -0.441781
C  -4.740448  -0.037070  -0.161812
C  -4.099731  -2.519288  1.035337
C  -3.838356  -2.283756  -0.318516
C  -3.969472  -0.992596  -0.834982
