100
# Created by libgraph from Fullerene (http://tinyurl.com/fullerenes)
C  4.747422  1.036571  1.600128
C  4.597319  2.194265  0.736724
C  5.024356  1.809896  -0.604877
C  5.461350  0.409995  -0.554297
C  5.369467  -0.042662  0.835087
C  5.132885  -0.467991  -1.601969
C  4.766743  -1.855669  -1.303433
C  4.807999  -2.328463  0.026543
C  5.034150  -1.381423  1.118612
C  4.294790  2.286437  -1.708685
C  3.937604  1.361318  -2.790906
C  4.291870  -0.003533  -2.706258
C  3.382069  2.870071  0.918596
C  2.629888  3.285932  -0.183853
C  3.153675  3.184251  -1.488450
C  3.642928  0.741719  2.407971
C  2.949947  1.786242  3.037525
C  2.876966  2.993195  2.225036
C  4.011670  -1.633102  2.133460
C  3.170801  -0.567596  2.471316
C  3.799132  -3.282427  0.496905
C  3.385252  -2.915415  1.837570
C  3.610676  -2.199254  -2.128325
C  2.537658  -2.852387  -1.503743
C  2.726684  -3.583605  -0.341542
C  3.279974  -1.035728  -2.947713
C  2.587447  1.704484  -3.228229
C  1.599447  0.704694  -3.172706
C  1.942672  -0.628178  -2.972235
C  2.210781  2.955273  -2.576957
C  1.293139  3.675561  0.016320
C  0.419110  3.639248  -1.057527
C  0.867800  3.056602  -2.218117
C  1.559017  3.592629  2.414400
C  0.795267  3.934151  1.290427
C  1.610519  1.531234  3.555566
C  0.816848  2.738778  3.328915
C  1.820328  -0.772982  2.765225
C  1.038017  0.302201  3.201984
C  1.994332  -3.061946  1.990802
C  1.223373  -2.009501  2.490488
C  1.743285  -4.490563  0.084523
C  1.381135  -4.214354  1.463830
C  1.224872  -2.674689  -1.936851
C  0.204598  -3.539054  -1.525106
C  0.483291  -4.590317  -0.647137
C  0.918762  -1.523829  -2.642477
C  0.241892  1.046865  -3.151710
C  -0.760636  0.101580  -3.171943
C  -0.420138  -1.203773  -2.868758
C  -0.095010  2.343148  -2.875753
C  -0.932447  4.000639  -0.930739
C  -1.840933  3.750057  -1.985145
C  -1.376751  2.858173  -3.046840
C  -0.531426  4.372352  1.473868
C  -1.398772  4.485503  0.296333
C  -0.543527  2.573092  3.008157
C  -1.269051  3.658499  2.502500
C  -0.347300  0.175452  3.147945
C  -1.136864  1.310749  3.047081
C  -0.168892  -2.137999  2.576026
C  -0.938955  -1.079821  3.055126
C  -0.070353  -4.352338  1.584905
C  -0.807741  -3.261308  2.054925
C  -0.552488  -4.911341  0.324487
C  -1.126546  -3.266191  -1.873605
C  -2.159000  -4.053221  -1.360548
C  -1.891345  -4.679209  -0.068454
C  -1.430517  -2.129174  -2.625969
C  -2.093436  0.499264  -3.309414
C  -3.113865  -0.457458  -3.300752
C  -2.747347  -1.848446  -3.019424
C  -2.422359  1.868868  -3.313631
C  -3.196950  3.341298  -1.627880
C  -3.571380  2.209173  -2.481656
C  -2.733316  4.020914  0.677546
C  -3.499792  3.282723  -0.255790
C  -2.625881  3.437708  2.009364
C  -2.505698  1.152719  2.836005
C  -3.193009  2.167596  2.170773
C  -2.306989  -1.249457  3.311714
C  -3.137850  -0.051782  3.182564
C  -2.195173  -3.228204  1.890168
C  -2.991516  -2.342988  2.632455
C  -2.773068  -4.005063  0.880703
C  -3.495581  -3.467609  -1.299159
C  -3.819200  -3.326498  0.119114
C  -3.805328  -2.419030  -2.188515
C  -4.286602  -0.128668  -2.504274
C  -4.598693  -1.298306  -1.689308
C  -4.289648  1.145540  -1.897914
C  -4.521897  2.424033  0.200580
C  -4.948074  1.333119  -0.672000
C  -4.409304  1.889581  1.550615
C  -4.337410  -0.416588  2.428002
C  -4.916405  0.520818  1.551435
C  -4.156968  -1.787644  1.959737
C  -4.250030  -2.071068  0.588028
C  -4.692338  -1.086321  -0.307751
C  -5.165413  0.149962  0.160215
