100
# Created by libgraph from Fullerene (http://tinyurl.com/fullerenes)
C  4.243238  0.341905  2.212319
C  4.241341  1.675750  1.617107
C  5.048536  1.634917  0.402203
C  5.456797  0.244572  0.191310
C  5.089345  -0.517383  1.386377
C  5.320846  -0.336592  -1.080939
C  4.867454  -1.727354  -1.199694
C  4.639609  -2.507630  -0.039852
C  4.783264  -1.889587  1.280129
C  4.648598  2.434125  -0.690513
C  4.435559  1.807018  -1.996468
C  4.723246  0.435391  -2.176259
C  3.016621  2.349243  1.553123
C  2.830077  3.394663  0.659321
C  3.587136  3.433443  -0.514411
C  3.024563  -0.195538  2.645458
C  1.905936  0.620955  2.799155
C  1.915135  1.915916  2.284954
C  3.739969  -2.444016  2.146114
C  2.877469  -1.571098  2.817153
C  3.477484  -3.407151  0.028968
C  3.022070  -3.470424  1.410835
C  3.885363  -1.775185  -2.278652
C  2.673637  -2.417405  -2.021766
C  2.485281  -3.221525  -0.922831
C  3.740002  -0.429839  -2.827967
C  3.177246  2.334694  -2.529727
C  2.156342  1.417282  -2.799581
C  2.432493  0.063328  -2.952399
C  2.791012  3.493462  -1.725535
C  1.780731  4.309562  0.854961
C  1.042675  4.539608  -0.374896
C  1.427607  3.701126  -1.438323
C  0.774974  2.727064  2.382985
C  0.783296  4.034173  1.884391
C  0.735881  0.097499  3.346306
C  -0.446466  0.816462  3.178717
C  -0.414155  2.175154  2.864960
C  1.791277  -2.102897  3.536001
C  0.737325  -1.173748  3.935145
C  1.625595  -3.516788  1.642580
C  1.150476  -3.262740  2.934135
C  1.186445  -3.677118  -0.721050
C  0.713984  -3.663426  0.583706
C  1.537624  -2.144233  -2.765023
C  0.547132  -3.105680  -2.986354
C  0.362022  -3.967058  -1.822844
C  1.348856  -0.817999  -3.071898
C  0.819160  1.809703  -2.779413
C  -0.187738  1.000129  -3.287455
C  0.057913  -0.363919  -3.317838
C  0.455967  2.940882  -2.084973
C  -0.385866  4.624655  -0.038584
C  -1.286196  3.802540  -0.732621
C  -0.897274  3.192200  -1.913058
C  -0.487750  4.578184  1.418265
C  -1.591166  2.936311  2.920022
C  -1.669687  4.077250  2.008995
C  -1.662235  0.143363  3.189044
C  -2.819128  0.827045  2.818567
C  -2.871861  2.227118  2.851260
C  -0.529153  -1.898127  3.885958
C  -1.681862  -1.231628  3.433280
C  -0.285570  -3.134643  3.157966
C  -0.668976  -3.626584  0.801730
C  -1.159204  -3.363121  2.084934
C  -1.072571  -4.066093  -1.565392
C  -1.548689  -3.712755  -0.291055
C  -0.777776  -2.650922  -3.405619
C  -1.760007  -3.476978  -2.716205
C  -1.004539  -1.264884  -3.422093
C  -1.441686  1.542754  -3.595900
C  -2.560002  0.603011  -3.632068
C  -2.309021  -0.762149  -3.407162
C  -1.852774  2.714168  -2.823961
C  -2.532793  3.477113  -0.199089
C  -3.445277  2.731758  -0.962748
C  -3.200634  2.466516  -2.322194
C  -2.803379  3.801873  1.133064
C  -3.694264  2.895386  1.847145
C  -3.879984  0.089661  2.294732
C  -4.821921  0.709674  1.473593
C  -4.614374  2.112383  1.117619
C  -2.809679  -1.990599  3.085060
C  -3.949214  -1.294505  2.494068
C  -2.532236  -3.176518  2.291563
C  -2.891797  -3.341329  -0.126426
C  -3.437898  -3.162798  1.150063
C  -3.055797  -2.946529  -2.555005
C  -3.684457  -3.054286  -1.243639
C  -3.368894  -1.607721  -3.061531
C  -3.655892  1.185540  -2.860086
C  -4.386099  0.343992  -1.997664
C  -4.425078  -1.043353  -2.230787
C  -4.566910  2.168082  -0.342269
C  -5.019414  0.878025  -0.861362
C  -5.211251  -0.017716  0.274263
C  -4.378212  -2.059096  1.328096
C  -4.760531  -1.347869  0.171183
C  -4.617269  -1.940092  -1.095703
