100
# Created by libgraph from Fullerene (http://tinyurl.com/fullerenes)
C  3.500398  -2.121640  2.254008
C  3.600212  -3.144153  1.220313
C  4.412347  -2.587203  0.155228
C  5.094185  -1.399212  0.677090
C  4.573083  -1.151032  2.024380
C  5.333291  -0.319489  -0.196764
C  5.211144  1.054406  0.293818
C  4.805317  1.297689  1.620843
C  4.418720  0.174783  2.478103
C  3.729201  -2.506015  -1.066805
C  3.773746  -1.305985  -1.787906
C  4.769688  -0.356045  -1.545352
C  2.394711  -3.742314  0.814753
C  2.304137  -4.380405  -0.418427
C  2.908461  -3.585490  -1.476722
C  2.223214  -1.615698  2.521037
C  1.097673  -2.407401  2.283556
C  1.232103  -3.575895  1.554442
C  3.159083  0.538511  3.124845
C  2.052088  -0.286375  2.898613
C  3.880631  2.397226  1.906853
C  2.953501  1.970519  2.938856
C  4.619592  1.856305  -0.777951
C  3.518329  2.666702  -0.472621
C  3.289084  3.084910  0.840511
C  4.541699  1.021526  -1.975527
C  2.735888  -1.021992  -2.670725
C  2.696542  0.171622  -3.403547
C  3.539253  1.273784  -2.936295
C  1.845866  -3.265728  -2.422198
C  1.663864  -1.907183  -2.708821
C  0.981768  -4.826808  -0.864637
C  0.652529  -4.035264  -2.050416
C  0.172047  -4.482079  1.453843
C  -0.021961  -5.039585  0.116147
C  -0.174048  -1.969359  2.637979
C  -1.273827  -2.823183  2.553714
C  -1.143546  -4.088759  1.968459
C  0.754385  0.229327  2.925227
C  -0.351508  -0.622980  2.924479
C  1.654424  2.455031  2.710762
C  0.558916  1.597862  2.799119
C  2.358394  4.106127  1.115691
C  1.493266  3.765740  2.232263
C  2.570609  2.985349  -1.448835
C  1.467116  3.774353  -1.087345
C  1.487372  4.582079  0.048726
C  2.662086  2.425726  -2.734470
C  1.378153  0.715768  -3.726677
C  1.382686  2.132215  -3.371750
C  0.399525  -1.371761  -2.913680
C  0.275128  -0.040048  -3.294763
C  -0.584800  -3.373509  -2.018783
C  -0.732475  -2.114376  -2.589630
C  -1.413642  -4.768692  -0.246764
C  -1.661696  -3.902366  -1.309024
C  -2.143306  -4.415320  0.963714
C  -2.545700  -2.367956  2.926748
C  -3.591932  -2.724409  1.976547
C  -3.211993  -3.493445  0.856834
C  -1.641874  -0.110638  3.064335
C  -2.731117  -0.960017  3.275260
C  -0.736233  2.073849  2.613459
C  -1.839297  1.253303  2.856554
C  0.138635  4.228317  1.922299
C  -0.922958  3.324584  2.040947
C  0.199832  4.938776  0.647340
C  0.286669  3.629820  -1.805536
C  -0.856544  4.390740  -1.532641
C  -0.948852  4.948235  -0.184365
C  0.231040  2.585952  -2.707969
C  -0.955493  0.567801  -3.071826
C  -0.977750  1.919675  -2.807154
C  -2.007859  -1.548261  -2.699019
C  -2.119209  -0.184022  -2.959853
C  -2.975690  -3.474856  -1.555732
C  -3.143166  -2.315938  -2.424257
C  -3.829021  -3.275515  -0.390925
C  -4.405323  -1.530400  1.748982
C  -4.605653  -1.100449  0.428784
C  -4.590948  -2.043940  -0.608678
C  -4.022896  -0.537122  2.749126
C  -3.131604  1.779959  2.762497
C  -4.207946  0.833862  2.478261
C  -2.163404  3.604999  1.471874
C  -3.320907  2.937967  1.896523
C  -2.213650  4.462471  0.374656
C  -2.164388  3.810513  -1.869288
C  -3.040113  3.959957  -0.716723
C  -2.179831  2.548946  -2.482286
C  -3.371158  0.437506  -2.976830
C  -3.393455  1.862128  -2.638442
C  -4.327642  -1.589670  -1.970722
C  -4.453434  -0.212714  -2.249515
C  -4.756784  0.267871  0.141938
C  -4.847220  0.709017  -1.186513
C  -4.756112  1.212325  1.179056
C  -4.277353  2.560216  0.864226
C  -3.903567  2.866203  -0.459330
C  -4.312746  2.030136  -1.519581
