100
# Created by libgraph from Fullerene (http://tinyurl.com/fullerenes)
C  5.029076  0.893710  1.006401
C  4.849024  1.911910  -0.011637
C  5.059857  1.282198  -1.313081
C  5.404164  -0.125984  -1.082308
C  5.455455  -0.348791  0.363892
C  4.891670  -1.124796  -1.928938
C  4.478763  -2.416850  -1.369521
C  4.632994  -2.672680  0.011273
C  5.049310  -1.587524  0.900444
C  4.221101  1.640552  -2.384619
C  3.663155  0.593429  -3.248618
C  3.952807  -0.767010  -2.994377
C  3.716852  2.713266  0.205131
C  2.853610  3.008762  -0.851669
C  3.180664  2.654574  -2.178532
C  4.018978  0.838515  1.971524
C  3.516335  2.026869  2.515628
C  3.396459  3.087073  1.526056
C  4.127282  -1.573997  2.035710
C  3.431872  -0.384890  2.275695
C  3.617097  -3.445392  0.734512
C  3.358110  -2.811668  2.013283
C  3.225816  -2.803674  -2.014369
C  2.190215  -3.279019  -1.192855
C  2.449668  -3.804642  0.062799
C  2.867882  -1.751268  -2.965171
C  2.284359  0.970756  -3.556166
C  1.266650  0.065301  -3.214040
C  1.562168  -1.258456  -2.901609
C  2.075107  2.336420  -3.081421
C  1.585695  3.534578  -0.559421
C  0.620933  3.533747  -1.542303
C  0.817912  2.621710  -2.545760
C  2.136506  3.790056  1.776431
C  1.217586  3.896974  0.728699
C  2.258203  1.986935  3.249142
C  1.589085  3.265162  3.024813
C  2.104009  -0.389404  2.709771
C  1.501193  0.816302  3.103626
C  1.977585  -2.777152  2.285056
C  1.355280  -1.567729  2.610467
C  1.453456  -4.532536  0.736646
C  1.219344  -3.940176  2.043873
C  0.852421  -3.097387  -1.532965
C  -0.168634  -3.821461  -0.910042
C  0.130497  -4.697308  0.134131
C  0.538073  -2.040316  -2.360884
C  -0.049494  0.501250  -3.018039
C  -1.097136  -0.378326  -2.838304
C  -0.794892  -1.672861  -2.491876
C  -0.276125  1.828503  -2.775651
C  -0.569710  4.264302  -1.426117
C  -1.721549  3.644035  -2.096000
C  -1.558429  2.319368  -2.539434
C  -0.123992  4.232669  0.974463
C  -0.989060  4.622294  -0.074192
C  0.195217  3.320466  3.239591
C  -0.627154  4.047271  2.268621
C  0.111296  0.875810  3.228130
C  -0.526078  2.087217  3.550675
C  -0.038206  -1.496858  2.688588
C  -0.642541  -0.257411  2.902625
C  -0.227719  -3.883989  2.253317
C  -0.822495  -2.625397  2.413333
C  -0.835095  -4.723166  1.221168
C  -1.513298  -3.547244  -1.212455
C  -2.531954  -4.195705  -0.516742
C  -2.189908  -4.518517  0.864853
C  -1.825290  -2.513986  -2.095568
C  -2.416416  0.071361  -2.816838
C  -3.469891  -0.847724  -2.861366
C  -3.149017  -2.223706  -2.464679
C  -2.645728  1.435785  -2.595370
C  -2.906484  3.904651  -1.282036
C  -4.014741  3.022107  -1.364400
C  -3.925277  1.898258  -2.289796
C  -2.404387  4.268037  0.047892
C  -1.978298  3.499878  2.326667
C  -2.711468  3.420792  1.119461
C  -1.907078  2.272426  3.112918
C  -1.999916  -0.115776  2.644141
C  -2.532294  1.157032  2.558095
C  -2.194835  -2.469819  2.168804
C  -2.795624  -1.220538  2.330088
C  -2.926948  -3.539419  1.643510
C  -3.858408  -3.572044  -0.508587
C  -4.130882  -3.199442  0.879900
C  -4.195612  -2.682305  -1.553022
C  -4.722988  -0.467046  -2.221091
C  -5.065701  -1.534362  -1.276291
C  -4.906285  0.890046  -1.868536
C  -4.567106  2.457677  -0.141797
C  -5.282958  1.225526  -0.495253
C  -3.676802  2.418869  0.929455
C  -3.640798  1.305354  1.751437
C  -4.164826  -1.053612  2.059367
C  -4.598722  0.292058  1.693504
C  -4.802628  -1.990693  1.145390
C  -5.379686  -1.203159  0.052322
C  -5.390229  0.201374  0.470429
