100
# Created by libgraph from Fullerene (http://tinyurl.com/fullerenes)
C  3.848947  -0.033278  2.655893
C  3.770629  1.412326  2.428624
C  4.739465  1.757699  1.396587
C  5.299391  0.501797  0.880634
C  4.861809  -0.589255  1.758137
C  5.369221  0.294929  -0.507299
C  5.050070  -1.023558  -1.061178
C  4.830296  -2.125066  -0.205064
C  4.694934  -1.894936  1.234524
C  4.416602  2.812629  0.514836
C  4.472307  2.574477  -0.928025
C  4.832460  1.304788  -1.420829
C  2.475722  1.949096  2.316135
C  2.210267  3.068342  1.529239
C  3.220562  3.634159  0.753213
C  2.633704  -0.718068  2.732489
C  1.478154  -0.058143  3.114304
C  1.393581  1.281544  2.870042
C  3.559269  -2.701331  1.695512
C  2.493594  -2.017302  2.282281
C  3.845857  -3.152086  -0.573976
C  3.183121  -3.628049  0.626503
C  4.122958  -0.818267  -2.169336
C  2.977695  -1.620353  -2.209071
C  2.974663  -2.880863  -1.630830
C  3.931564  0.618522  -2.342286
C  3.299802  3.230091  -1.505146
C  2.320145  2.423386  -2.092008
C  2.620847  1.103289  -2.434957
C  2.811232  4.190462  -0.525310
C  0.885470  3.530615  1.409393
C  0.580667  4.562353  0.517533
C  1.484789  4.671825  -0.626766
C  0.147499  1.865839  2.994427
C  -0.147922  2.856368  2.074062
C  0.346694  -0.733733  3.559855
C  -0.668799  -0.067229  4.248938
C  -0.801147  1.346681  3.893200
C  1.203504  -2.545223  2.291642
C  0.199453  -2.034917  3.113467
C  1.811612  -3.893913  0.402502
C  0.858301  -3.452297  1.319410
C  1.994571  -3.817637  -1.996559
C  1.393944  -4.441263  -0.829597
C  1.773614  -1.136002  -2.712826
C  0.730991  -2.013272  -3.027942
C  0.891040  -3.394087  -2.856557
C  1.575643  0.237765  -2.763530
C  1.010430  2.902391  -2.224866
C  0.003279  2.053690  -2.700350
C  0.300769  0.734028  -3.019031
C  0.703097  4.185832  -1.755285
C  -0.783576  4.624097  -0.010850
C  -0.702103  4.440670  -1.450908
C  -1.476307  3.028767  1.700428
C  -1.780706  3.852754  0.614635
C  -2.195699  1.588655  3.539116
C  -2.458693  2.243085  2.319887
C  -2.000050  -0.670035  4.254833
C  -2.952285  0.368076  3.845494
C  -0.979710  -2.756040  3.324539
C  -2.150932  -2.000607  3.792999
C  -0.487595  -3.754334  1.170493
C  -1.402132  -3.631626  2.233100
C  -0.051714  -4.550319  -1.074837
C  -0.915424  -3.988370  -0.126488
C  -0.290982  -4.151800  -2.462959
C  -0.518493  -1.499288  -3.397271
C  -1.600375  -2.362512  -3.581924
C  -1.547964  -3.618891  -2.838018
C  -0.713281  -0.115495  -3.467667
C  -1.324432  2.477446  -2.731076
C  -2.297205  1.771283  -3.446402
C  -1.947207  0.414740  -3.875216
C  -1.677960  3.541842  -1.911746
C  -3.056475  3.784437  0.034649
C  -2.981980  3.629439  -1.409510
C  -3.661911  2.026409  1.642812
C  -4.015409  2.803618  0.528736
C  -4.054174  0.021436  3.043120
C  -4.475732  0.943736  1.990309
C  -3.266772  -2.335797  2.903321
C  -4.187287  -1.340136  2.519244
C  -2.763965  -3.255058  1.880066
C  -2.174338  -3.513200  -0.473510
C  -2.953184  -2.925358  0.529946
C  -2.581494  -3.505865  -1.812352
C  -2.939619  -1.810739  -3.417557
C  -3.463147  -2.398029  -2.186809
C  -3.118294  -0.431345  -3.658952
C  -3.644546  1.728034  -2.884380
C  -3.991269  0.314263  -2.759263
C  -3.957457  2.618451  -1.831697
C  -4.547512  2.066845  -0.612023
C  -4.907357  0.162710  0.843451
C  -4.575417  0.676591  -0.426598
C  -4.589146  -1.230761  1.115537
C  -3.829989  -1.910318  0.162372
C  -3.852634  -1.507516  -1.172973
C  -4.172434  -0.178743  -1.462861
