100
# Created by libgraph from Fullerene (http://tinyurl.com/fullerenes)
C  4.386215  -2.351139  1.164896
C  4.667412  -2.780396  -0.202328
C  5.349184  -1.669870  -0.863726
C  5.723750  -0.694721  0.165248
C  5.190040  -1.159242  1.444754
C  5.729355  0.677346  -0.135291
C  5.351066  1.654698  0.890454
C  4.898527  1.217421  2.147455
C  4.756115  -0.219090  2.404774
C  4.909414  -1.230412  -2.124389
C  4.775863  0.206746  -2.382503
C  5.210897  1.144869  -1.420035
C  3.687708  -3.529279  -0.892482
C  3.274548  -3.112103  -2.239689
C  3.806561  -1.924356  -2.799667
C  3.052340  -2.342564  1.569097
C  2.130557  -3.206912  0.957017
C  2.477444  -3.955395  -0.184018
C  3.463503  -0.427116  3.046187
C  2.597028  -1.376304  2.474542
C  3.793539  1.916583  2.813769
C  2.882757  0.890636  3.332957
C  4.681585  2.769565  0.223517
C  3.697258  3.521975  0.904806
C  3.271367  3.106448  2.249360
C  4.415924  2.344495  -1.148567
C  3.487995  0.420365  -3.033209
C  2.623609  1.376140  -2.470362
C  3.089208  2.344138  -1.568469
C  2.903754  -0.895021  -3.324418
C  1.832310  -3.370161  -2.357182
C  0.999026  -2.268345  -2.634850
C  1.542511  -1.054686  -3.050913
C  1.420597  -4.150050  -1.187670
C  0.789859  -3.183463  1.361779
C  -0.168572  -3.830762  0.640563
C  0.143023  -3.869473  -0.688127
C  1.219958  -1.278939  2.666523
C  0.353300  -2.291241  2.298370
C  1.521594  1.049744  3.048562
C  0.684557  -0.060240  2.984254
C  1.829694  3.368145  2.357874
C  0.992970  2.269347  2.641685
C  2.495033  3.953451  0.184433
C  1.420731  4.126696  1.173179
C  2.167627  3.217222  -0.967780
C  1.244845  1.280570  -2.669149
C  0.380554  2.299643  -2.313188
C  0.844370  3.197683  -1.394796
C  0.708169  0.060065  -2.980954
C  -0.372137  -2.284411  -2.317557
C  -1.232233  -1.262667  -2.668683
C  -0.675240  -0.053670  -2.990053
C  -0.815268  -3.187500  -1.393840
C  -1.434157  -4.132252  1.178580
C  -2.496732  -3.943816  0.186766
C  -2.145189  -3.204732  -0.961675
C  -1.009425  -2.275445  2.645050
C  -1.846349  -3.365444  2.360616
C  -0.704625  0.050201  3.002336
C  -1.540464  -1.056494  3.059613
C  -0.378218  2.284196  2.330502
C  -1.242056  1.268040  2.682844
C  0.147522  3.802650  0.668685
C  -0.813268  3.171395  1.393348
C  -0.136555  3.811408  -0.662384
C  -0.984561  2.278565  -2.651353
C  -1.819923  3.369684  -2.372144
C  -1.401833  4.128076  -1.190495
C  -1.516950  1.055569  -3.054797
C  -2.609204  -1.372074  -2.476833
C  -3.472363  -0.424982  -3.044610
C  -2.881481  0.888197  -3.334213
C  -3.068195  -2.336315  -1.567466
C  -3.703007  -3.514428  0.899769
C  -4.681136  -2.764349  0.212349
C  -4.400318  -2.341319  -1.155810
C  -3.286617  -3.098551  2.245933
C  -2.905091  -0.882953  3.333915
C  -3.812869  -1.908116  2.807361
C  -2.618214  1.382953  2.482606
C  -3.488147  0.435682  3.042861
C  -2.142777  3.206842  0.960849
C  -3.068674  2.347449  1.567880
C  -2.469282  3.949748  -0.195077
C  -3.260502  3.108350  -2.256529
C  -3.677071  3.527240  -0.911006
C  -3.788368  1.918764  -2.816586
C  -4.761858  -0.209818  -2.399629
C  -4.895520  1.227618  -2.145786
C  -5.198924  -1.145754  -1.436621
C  -5.356413  -1.649347  0.872798
C  -5.727479  -0.674677  -0.157466
C  -4.913298  -1.209699  2.132162
C  -4.774171  0.227266  2.387879
C  -4.396725  2.358848  1.146354
C  -5.201499  1.166103  1.422264
C  -4.663227  2.782323  -0.225819
C  -5.342013  1.670705  -0.888834
C  -5.724578  0.698232  0.139646
