100
# Created by libgraph from Fullerene (http://tinyurl.com/fullerenes)
C  4.073771  -0.732239  2.243979
C  4.087854  0.734809  2.242144
C  5.040842  1.177534  1.232817
C  5.458496  -0.011977  0.483389
C  5.024340  -1.192736  1.236145
C  5.364253  -0.007991  -0.918761
C  4.842864  -1.191218  -1.605259
C  4.673807  -2.404470  -0.906153
C  4.768049  -2.401528  0.553964
C  4.768158  2.389095  0.559715
C  4.692302  2.382571  -0.901873
C  4.837013  1.170552  -1.607735
C  2.838549  1.371471  2.274584
C  2.646514  2.639615  1.726016
C  3.677192  3.259118  1.022195
C  2.825312  -1.370678  2.271384
C  1.713693  -0.682661  2.726526
C  1.724222  0.685885  2.729359
C  3.681619  -3.257894  1.038956
C  2.635963  -2.640176  1.726355
C  3.550926  -3.284032  -1.241253
C  3.262493  -4.098803  -0.072912
C  3.751186  -0.744179  -2.464300
C  2.512780  -1.384547  -2.327625
C  2.446412  -2.691194  -1.850020
C  3.747800  0.715040  -2.470120
C  3.579374  3.259944  -1.263421
C  2.458816  2.678339  -1.859313
C  2.519513  1.371448  -2.334651
C  3.274813  4.085032  -0.102638
C  1.365973  3.222764  1.760321
C  1.121867  4.437294  1.106134
C  2.010450  4.719816  -0.020417
C  0.534644  1.330819  3.010891
C  0.301914  2.509784  2.326738
C  0.528785  -1.334841  3.020124
C  -0.451115  -0.743467  3.828017
C  -0.434368  0.719413  3.821448
C  1.355002  -3.221315  1.754954
C  0.292115  -2.506004  2.324758
C  1.991825  -4.725975  -0.047451
C  1.128821  -4.435498  1.091877
C  1.225986  -3.367813  -1.855023
C  1.108304  -4.590141  -1.196673
C  1.315238  -0.698406  -2.553382
C  0.106097  -1.393650  -2.638465
C  0.089867  -2.767151  -2.394140
C  1.319690  0.691085  -2.553412
C  1.241046  3.360444  -1.856727
C  0.099694  2.767851  -2.394276
C  0.113386  1.392089  -2.638847
C  1.150338  4.578163  -1.182031
C  -0.252180  4.706259  0.654759
C  -0.195883  4.974154  -0.778647
C  -1.011944  2.870575  2.066855
C  -1.253534  3.822333  1.082863
C  -1.807444  1.188057  3.645555
C  -2.065847  2.177772  2.681354
C  -1.833348  -1.175772  3.641669
C  -2.678859  0.014511  3.598259
C  -1.023776  -2.862964  2.069393
C  -2.079946  -2.171754  2.680629
C  -0.257495  -4.699089  0.673343
C  -1.265546  -3.810601  1.083351
C  -0.226886  -4.974859  -0.762605
C  -1.082221  -3.510641  -2.566737
C  -1.311369  -4.553113  -1.567344
C  -1.094154  -0.699939  -2.831702
C  -2.303139  -1.402122  -2.883303
C  -2.341255  -2.794234  -2.748884
C  -1.088665  0.701687  -2.832451
C  -1.060454  3.531236  -2.554227
C  -2.310840  2.808641  -2.776204
C  -2.291781  1.413492  -2.887947
C  -1.307673  4.563707  -1.553623
C  -2.479409  3.768611  0.427983
C  -2.559958  4.179656  -0.900328
C  -3.385024  2.387634  2.254907
C  -3.591240  3.188637  1.050577
C  -3.743139  0.006692  2.672551
C  -4.255174  1.220598  2.178297
C  -3.392702  -2.396917  2.246114
C  -4.247274  -1.215317  2.186475
C  -2.493379  -3.765152  0.425283
C  -3.611920  -3.173550  1.027023
C  -2.559664  -4.198378  -0.897708
C  -3.296671  -3.297739  -1.773081
C  -3.516032  -0.711707  -2.933836
C  -4.478387  -1.172881  -1.943253
C  -4.121189  -2.308766  -1.190617
C  -3.518864  0.743524  -2.911992
C  -3.276612  3.286046  -1.795362
C  -4.112837  2.319370  -1.191183
C  -4.497302  1.186938  -1.931033
C  -4.478191  2.440159  0.163696
C  -4.899351  1.228175  0.867638
C  -4.900334  -1.201489  0.879694
C  -4.948067  0.009773  0.170252
C  -4.503645  -2.410848  0.159891
C  -4.983884  0.000198  -1.232258
