100
# Created by libgraph from Fullerene (http://tinyurl.com/fullerenes)
C  3.402188  0.522658  3.225048
C  3.725871  1.852706  2.722716
C  4.397891  1.642014  1.443027
C  4.770583  0.233237  1.355233
C  4.292611  -0.431344  2.565386
C  4.523230  -0.363059  0.110506
C  4.037273  -1.678955  0.056991
C  4.043475  -2.485896  1.198528
C  3.919772  -1.790470  2.474798
C  3.832853  2.215174  0.293155
C  4.297775  1.818566  -0.966406
C  4.664840  0.411949  -1.058350
C  2.740736  2.856314  2.838730
C  2.442567  3.651826  1.652940
C  2.750499  3.093624  0.406216
C  2.051480  0.175903  3.297507
C  1.078891  1.179764  3.383685
C  1.446843  2.527406  3.428613
C  2.619897  -2.172875  3.011657
C  1.662090  -1.161289  3.168970
C  3.149171  -3.641824  1.239788
C  2.184485  -3.382479  2.308666
C  3.445697  -2.141709  -1.119929
C  2.937458  -3.448260  -1.223931
C  2.695898  -4.185126  0.016654
C  4.084190  -0.112415  -2.285939
C  3.263266  -1.233682  -2.163616
C  3.513319  2.154597  -2.150816
C  3.572716  1.016707  -3.063603
C  1.931647  3.327762  -0.709956
C  2.272163  2.771906  -1.950492
C  1.106821  4.213865  1.825598
C  0.256488  4.331046  0.714932
C  0.723527  4.029024  -0.565667
C  0.487485  3.512308  2.937338
C  -0.270339  0.830641  3.297692
C  -1.226359  1.782412  2.979391
C  -0.832128  3.092522  2.709297
C  0.300103  -1.456610  3.081415
C  -0.650943  -0.498737  3.387574
C  0.830173  -3.490949  1.962161
C  -0.116279  -2.662413  2.548861
C  1.328804  -4.705126  -0.052643
C  0.415248  -4.330846  0.936117
C  1.785153  -3.646004  -2.102320
C  0.814201  -4.476972  -1.394418
C  2.175092  -1.418102  -3.004473
C  1.320536  -2.480761  -2.718157
C  2.494433  0.825110  -3.955320
C  1.880253  -0.499104  -4.020670
C  1.313950  2.748777  -2.965847
C  1.403224  1.801093  -3.993896
C  -0.066020  4.339835  -1.681791
C  0.196389  3.594795  -2.906428
C  -1.099790  4.633181  0.928807
C  -2.023730  4.585923  -0.206126
C  -1.515689  4.409707  -1.509819
C  -1.720131  3.956645  2.058901
C  -2.546549  1.365787  2.788915
C  -3.366896  2.134868  1.965144
C  -3.014298  3.449059  1.616947
C  -1.976859  -0.866607  3.642283
C  -2.987047  0.138575  3.315498
C  -1.479934  -2.966193  2.482087
C  -2.432080  -2.151022  3.118498
C  -0.938477  -4.685464  0.797919
C  -1.908525  -4.020571  1.665428
C  -0.549796  -4.116497  -1.475485
C  -1.460041  -4.653431  -0.558201
C  -0.033128  -2.277883  -2.924480
C  -0.980433  -3.135242  -2.371207
C  0.456282  -0.327462  -4.299304
C  -0.434437  -1.112923  -3.554675
C  0.166259  1.104993  -4.316543
C  -1.047373  2.949291  -3.299100
C  -0.950736  1.581330  -3.602879
C  -2.095336  3.381898  -2.375415
C  -3.174285  3.783130  0.210103
C  -3.562040  2.684217  -0.567155
C  -2.884213  2.405277  -1.752993
C  -4.484242  1.549025  1.362878
C  -4.540218  1.805697  -0.066820
C  -4.082607  -0.539315  2.617725
C  -4.768050  0.132913  1.588348
C  -3.674219  -1.925496  2.394958
C  -3.088611  -3.710270  0.865104
C  -3.707880  -2.467084  1.099039
C  -2.827604  -4.132173  -0.511914
C  -2.348082  -2.916928  -2.619278
C  -3.287629  -3.335985  -1.578818
C  -1.720034  -0.679609  -3.294105
C  -2.758755  -1.589353  -3.084932
C  -1.886094  0.677308  -3.085740
C  -2.904106  1.098146  -2.240224
C  -4.727827  0.528636  -0.745068
C  -3.856730  0.175422  -1.782742
C  -4.899839  -0.500173  0.275780
C  -4.274041  -1.738051  0.043626
C  -4.148179  -2.192188  -1.279012
C  -3.877158  -1.149641  -2.260474
