100
# Created by libgraph from Fullerene (http://tinyurl.com/fullerenes)
C  4.168326  -2.577686  -0.259172
C  4.368547  -1.992638  -1.579142
C  4.723495  -0.590336  -1.358107
C  5.009229  -0.401304  0.058668
C  4.742781  -1.666355  0.735775
C  4.542584  0.803905  0.615408
C  4.056632  0.840660  1.930539
C  3.970660  -0.340403  2.689848
C  4.216717  -1.630570  2.040893
C  3.948438  0.402335  -1.966161
C  4.143337  1.745870  -1.600821
C  4.494259  1.949359  -0.199162
C  3.461520  -2.342473  -2.605204
C  2.833478  -1.263148  -3.360563
C  2.917511  0.040230  -2.835998
C  2.920613  -3.146544  0.010690
C  2.148773  -3.693061  -1.020601
C  2.418717  -3.341182  -2.349349
C  3.084957  -2.498524  2.353069
C  2.378080  -3.084925  1.290803
C  2.812089  -0.484511  3.564327
C  2.267482  -1.827847  3.358271
C  3.575440  2.043695  2.481458
C  2.426726  1.912207  3.373150
C  1.928411  0.610691  3.558374
C  3.804141  3.148334  0.282069
C  3.347789  3.201707  1.616587
C  3.127662  2.736410  -1.945877
C  2.909350  3.593561  -0.786011
C  1.900458  0.967216  -3.074693
C  1.975425  2.254632  -2.574669
C  1.502518  -1.717791  -3.774049
C  0.459528  -0.794150  -3.661797
C  0.721313  0.556973  -3.676138
C  1.259296  -3.024301  -3.173717
C  1.032522  -4.501862  -0.726330
C  -0.092326  -4.323485  -1.634949
C  0.020852  -3.263791  -2.547922
C  1.060790  -3.518606  1.463867
C  0.496928  -4.484132  0.630333
C  0.879479  -1.894486  3.188559
C  0.283278  -2.854847  2.396656
C  0.546744  0.381814  3.606436
C  0.059925  -0.903778  3.675765
C  1.465658  2.964717  3.045382
C  0.111800  2.607275  2.917215
C  -0.357246  1.407352  3.414061
C  2.001681  3.706152  1.909809
C  1.558786  3.809022  -0.476821
C  1.126549  3.888056  0.834238
C  0.794728  2.991858  -2.568109
C  0.578388  3.806559  -1.472448
C  -0.247459  1.459213  -4.139122
C  -0.178598  2.795823  -3.554499
C  -0.844835  -1.175160  -3.389550
C  -1.896759  -0.283511  -3.625489
C  -1.640659  1.023236  -4.090698
C  -1.054128  -2.380894  -2.732202
C  -1.328666  -4.442128  -0.863802
C  -2.378991  -3.542837  -1.101227
C  -2.298233  -2.628840  -2.149998
C  -0.962078  -4.544042  0.541279
C  -1.103490  -3.018223  2.443320
C  -1.720761  -3.755893  1.429589
C  -1.257145  -1.167286  4.063495
C  -1.857862  -2.342355  3.423788
C  -1.735164  1.184487  3.550572
C  -2.217745  -0.068956  3.978600
C  -0.771698  3.363598  2.155302
C  -2.142471  3.349622  2.407963
C  -2.644116  2.171093  3.120659
C  -0.249801  3.992328  1.039738
C  -0.638316  4.479659  -1.309166
C  -1.080017  4.583315  0.078100
C  -1.542619  3.235001  -3.245746
C  -1.779925  4.049759  -2.114208
C  -2.421075  2.086553  -3.471833
C  -3.203069  -0.645604  -3.266202
C  -3.924961  0.414539  -2.576463
C  -3.256264  1.645700  -2.436991
C  -3.427676  -1.888799  -2.525584
C  -3.449225  -3.488518  -0.196031
C  -4.423571  -2.407499  -0.334233
C  -4.433267  -1.618919  -1.502262
C  -3.096743  -3.609873  1.211101
C  -3.241648  -2.007423  3.086902
C  -3.838321  -2.590161  1.949677
C  -3.400922  -0.567879  3.293077
C  -3.756541  1.635774  2.348604
C  -3.821097  0.235038  2.224333
C  -3.036082  3.616422  1.282632
C  -3.876417  2.430821  1.131094
C  -2.503100  4.241647  0.131076
C  -2.844789  3.686178  -1.178134
C  -3.337666  2.376493  -1.243138
C  -4.530155  -0.166884  -1.386621
C  -4.217369  0.411623  -0.152583
C  -3.835154  1.754094  -0.093090
C  -4.485113  -1.729671  0.959212
C  -4.203056  -0.358517  1.014318
