100
# Created by libgraph from Fullerene (http://tinyurl.com/fullerenes)
C  4.903072  0.067584  0.521139
C  4.864389  1.009753  -0.585188
C  4.659671  0.236560  -1.797106
C  4.849020  -1.182216  -1.475702
C  5.066179  -1.281150  -0.030973
C  4.055562  -2.142423  -2.135618
C  3.584464  -3.328413  -1.407402
C  3.857422  -3.465902  -0.031950
C  4.561547  -2.393371  0.676974
C  3.522287  0.635808  -2.508432
C  2.606851  -0.332894  -2.921378
C  2.969328  -1.689511  -3.004584
C  4.046265  2.147697  -0.429471
C  3.661555  2.869877  -1.562769
C  3.259434  2.014145  -2.668050
C  3.946861  0.244940  1.519935
C  3.445604  1.514079  1.808748
C  3.515313  2.492871  0.819370
C  3.838924  -2.147131  1.923107
C  3.385686  -0.846245  2.162420
C  2.820252  -3.979139  0.870818
C  2.860940  -3.217660  2.105917
C  2.240042  -3.649592  -1.888344
C  1.218451  -3.893009  -0.942921
C  1.529999  -4.210515  0.375802
C  1.910757  -2.695477  -2.941333
C  1.281787  0.057947  -3.115613
C  0.285144  -0.902096  -3.194696
C  0.606786  -2.209024  -2.917395
C  1.905718  2.403585  -3.051800
C  0.929953  1.399367  -3.068380
C  2.676959  3.942514  -1.423190
C  1.551461  3.611997  -2.302511
C  2.968420  3.762126  1.038702
C  2.423815  4.457138  -0.131062
C  2.788654  1.743262  3.026529
C  1.931815  2.923725  3.127210
C  2.038026  3.944211  2.156149
C  2.269406  -0.614623  2.956283
C  2.076679  0.611555  3.612826
C  1.572050  -2.896444  2.570998
C  1.278448  -1.582121  2.934115
C  0.514083  -4.619433  1.261418
C  0.557187  -3.868770  2.506353
C  -0.131583  -3.685726  -1.269248
C  -1.164970  -4.029594  -0.403481
C  -0.885017  -4.630377  0.825219
C  -0.423686  -2.960445  -2.405863
C  -1.059424  -0.553852  -3.373888
C  -2.041603  -1.542653  -3.531165
C  -1.714082  -2.833312  -2.928160
C  -0.420254  1.700131  -2.895850
C  -1.413715  0.783536  -3.232409
C  0.262975  3.674577  -1.744557
C  -0.759621  2.863182  -2.231534
C  1.061408  4.860624  0.203066
C  0.005243  4.443674  -0.614456
C  0.827029  4.549939  1.604092
C  0.597923  2.453140  3.503817
C  -0.487231  2.822474  2.691435
C  -0.411318  3.953094  1.878761
C  0.700864  1.035340  3.853244
C  -0.032227  -1.176880  3.122938
C  -0.288140  0.171518  3.358423
C  -0.809372  -3.453633  2.825827
C  -1.073672  -2.080798  2.924761
C  -1.704029  -4.212778  1.955629
C  -2.473334  -3.634567  -0.723039
C  -3.442629  -3.575230  0.285926
C  -2.992045  -3.703809  1.672806
C  -2.796692  -3.195449  -2.021434
C  -3.412660  -1.207836  -3.160252
C  -3.807124  -2.141105  -2.103345
C  -2.750857  1.187363  -3.288120
C  -3.762786  0.155276  -3.055284
C  -2.100404  3.128713  -1.939779
C  -3.130831  2.368587  -2.517158
C  -1.315334  4.677776  -0.192523
C  -2.407620  4.074403  -0.958254
C  -1.559024  4.422242  1.216758
C  -1.618931  2.003853  2.588613
C  -2.800666  2.470525  2.012026
C  -2.811847  3.675929  1.310348
C  -1.517171  0.664664  2.940721
C  -2.362648  -1.585298  2.703469
C  -2.593611  -0.205536  2.748720
C  -3.382011  -2.461147  2.324459
C  -4.401462  -2.473095  0.222773
C  -4.483297  -1.886330  1.555693
C  -4.307392  -1.626027  -0.895161
C  -4.543133  0.584609  -1.897412
C  -4.643180  -0.266097  -0.785977
C  -4.232025  1.991393  -1.639915
C  -3.420697  3.624838  -0.011453
C  -4.134263  2.439300  -0.308022
C  -3.954078  1.676045  2.016162
C  -4.663776  1.661195  0.742269
C  -3.872474  0.296452  2.488058
C  -4.758773  -0.509416  1.659268
C  -5.018990  0.273015  0.453511
