100
# Created by libgraph from Fullerene (http://tinyurl.com/fullerenes)
C  3.324993  -1.947377  2.606190
C  3.679681  -0.548908  2.872424
C  4.823880  -0.204691  2.038143
C  5.065279  -1.337640  1.136143
C  4.220847  -2.458461  1.567379
C  5.268152  -1.101210  -0.233735
C  4.652655  -1.988831  -1.225106
C  3.952961  -3.147727  -0.814411
C  3.734375  -3.387603  0.615320
C  4.927511  1.123443  1.564685
C  5.138862  1.357939  0.135819
C  5.211460  0.268039  -0.754223
C  2.606675  0.356966  2.911292
C  2.751540  1.686273  2.504212
C  3.972689  2.145034  2.017149
C  1.962288  -2.229561  2.459136
C  1.008224  -1.410600  3.036109
C  1.328466  -0.097531  3.206401
C  2.373435  -3.916442  0.769779
C  1.498790  -3.212424  1.606010
C  2.726020  -3.551140  -1.517764
C  1.829112  -4.186139  -0.559456
C  4.061916  -1.143054  -2.258482
C  2.746999  -1.407107  -2.644668
C  2.130368  -2.608909  -2.360717
C  4.346765  0.252080  -1.929870
C  4.310492  2.507648  -0.234562
C  3.287147  2.314857  -1.168562
C  3.277425  1.162354  -1.957770
C  3.917154  3.181335  0.996133
C  1.614955  2.513218  2.448997
C  1.682796  3.804101  1.910198
C  2.790369  4.039781  0.984339
C  0.277464  0.760421  3.436956
C  0.375268  1.973218  2.792084
C  -0.306264  -1.823189  3.256612
C  -1.167474  -1.099578  4.085076
C  -0.879916  0.334710  4.114262
C  0.108467  -3.337944  1.492129
C  -0.766086  -2.851259  2.453570
C  0.465843  -3.879974  -0.762762
C  -0.409313  -3.753759  0.292918
C  0.812327  -2.758493  -2.799230
C  -0.030208  -3.503687  -1.999464
C  1.952252  -0.413537  -3.200462
C  0.914931  -0.716836  -4.096999
C  0.335025  -2.044139  -3.905174
C  2.124882  0.860637  -2.686095
C  2.212942  3.217381  -1.226553
C  1.150621  2.997857  -2.109733
C  1.081725  1.769974  -2.774456
C  2.151824  4.265758  -0.304179
C  0.462510  4.345915  1.289054
C  0.824146  4.820637  -0.042766
C  -0.789850  2.527895  2.310116
C  -0.700622  3.563874  1.390319
C  -2.099609  1.031363  3.716637
C  -2.006290  1.918640  2.627976
C  -2.608063  -1.277591  3.893492
C  -3.194015  0.056005  3.713620
C  -2.099169  -3.269557  2.470410
C  -3.065758  -2.366758  3.111816
C  -1.790381  -3.844236  0.101149
C  -2.668864  -3.720584  1.197532
C  -1.367625  -3.719265  -2.344358
C  -2.293825  -3.895884  -1.214578
C  -1.122617  -1.943412  -4.055456
C  -1.974710  -2.784725  -3.292709
C  -0.186905  0.233449  -4.203122
C  -1.440290  -0.515280  -4.127787
C  -0.099745  1.384879  -3.400873
C  0.114441  3.943642  -2.219227
C  -1.166430  3.455754  -2.742283
C  -1.240583  2.097887  -3.068242
C  -0.172994  4.760328  -1.044818
C  -1.741543  3.693102  0.472619
C  -1.557760  4.450470  -0.684336
C  -3.084810  2.120187  1.766554
C  -2.920579  2.953666  0.649910
C  -4.267475  0.231403  2.820139
C  -4.276778  1.412709  1.957166
C  -4.168107  -2.166554  2.165780
C  -4.752159  -0.893842  2.018444
C  -3.875294  -2.946408  0.960506
C  -3.427197  -3.005839  -1.428667
C  -3.920305  -2.321721  -0.295218
C  -3.149513  -2.216442  -2.624782
C  -2.379772  0.007163  -3.225974
C  -3.212056  -0.828046  -2.491699
C  -2.420434  1.377381  -2.949921
C  -2.230813  3.978092  -1.885906
C  -3.422770  3.234872  -1.706877
C  -3.573996  1.982146  -2.443461
C  -3.894904  2.953660  -0.352990
C  -5.024045  1.073853  0.752594
C  -4.791227  1.805412  -0.430176
C  -5.025509  -0.382032  0.676176
C  -4.358524  -0.992097  -0.390635
C  -4.034246  -0.245907  -1.525248
C  -4.431530  1.096522  -1.654930
