100
# Created by libgraph from Fullerene (http://tinyurl.com/fullerenes)
C  4.442687  -0.544878  1.599664
C  4.673588  0.841467  1.218269
C  4.966574  0.861653  -0.202957
C  5.144548  -0.520287  -0.648661
C  4.956417  -1.384891  0.518602
C  4.622968  -0.901294  -1.899239
C  4.014177  -2.228355  -2.055133
C  3.962466  -3.120220  -0.965288
C  4.432120  -2.679165  0.349086
C  4.115595  1.721149  -0.909881
C  3.430396  1.253220  -2.031883
C  3.818710  0.057165  -2.665191
C  3.742958  1.798077  1.653326
C  3.733203  3.065007  1.065575
C  3.862724  3.001423  -0.382302
C  3.191761  -0.880691  2.134062
C  2.379725  0.119147  2.684369
C  2.745521  1.458485  2.562955
C  3.451632  -3.149131  1.322294
C  2.709769  -2.189978  2.019293
C  2.754919  -3.921928  -0.734572
C  2.691783  -4.217136  0.687744
C  2.813767  -2.071085  -2.870084
C  1.591271  -2.562718  -2.369116
C  1.567225  -3.508917  -1.344861
C  2.792153  -0.700815  -3.370679
C  2.267029  1.927114  -2.434008
C  1.334011  1.247645  -3.204895
C  1.539095  -0.095658  -3.436016
C  2.779365  3.784729  -0.965053
C  1.973000  3.202487  -1.951542
C  2.650823  3.991313  1.395976
C  2.013141  4.365970  0.131317
C  2.042420  2.454875  3.249666
C  1.852217  3.713432  2.527641
C  1.143019  -0.207607  3.239629
C  0.347797  0.771519  3.847264
C  0.764946  2.111686  3.871597
C  1.436925  -2.509268  2.503935
C  0.643522  -1.491253  3.047363
C  1.435199  -4.589402  1.209510
C  0.924370  -3.809533  2.328773
C  0.334732  -3.957095  -0.843923
C  0.299489  -4.746591  0.306857
C  0.376916  -2.017047  -2.803741
C  -0.843805  -2.515352  -2.376182
C  -0.868736  -3.523726  -1.415238
C  0.399854  -0.854476  -3.541862
C  0.131443  1.845426  -3.606087
C  -0.869057  1.084194  -4.251929
C  -0.710185  -0.368080  -4.230412
C  0.790296  3.858053  -2.332707
C  -0.133113  3.170562  -3.236956
C  0.616289  4.265284  0.019883
C  0.016899  4.429323  -1.240233
C  0.410984  3.909549  2.412150
C  -0.151126  3.892961  1.128618
C  -0.228025  3.074273  3.423621
C  -0.941660  0.447963  4.313140
C  -1.938484  1.443922  3.953007
C  -1.465631  2.480721  3.138756
C  -0.706352  -1.724881  3.256742
C  -1.509171  -0.858274  4.000561
C  -0.535855  -3.937305  2.313672
C  -1.271037  -2.776918  2.562479
C  -0.909286  -4.692220  1.118985
C  -2.096658  -4.004736  -0.944574
C  -2.127603  -4.400959  0.461003
C  -2.023256  -1.897395  -2.811850
C  -3.201936  -2.136958  -2.103550
C  -3.296014  -3.207976  -1.200509
C  -1.994603  -0.965670  -3.867232
C  -2.246364  1.375677  -3.883697
C  -2.984135  0.111983  -3.829232
C  -1.484705  3.373978  -2.729407
C  -2.373630  2.282002  -2.823806
C  -1.371299  4.022816  -1.428204
C  -1.449226  3.404573  0.926780
C  -1.999962  3.391492  -0.352848
C  -2.159796  2.820054  1.980711
C  -3.178078  0.759427  3.573330
C  -4.003373  1.307574  2.568579
C  -3.513894  2.475876  1.842744
C  -2.872816  -0.667399  3.509318
C  -2.534538  -2.571190  2.028914
C  -3.191779  -1.373791  2.335917
C  -3.059250  -3.483176  1.113795
C  -3.908543  -2.897929  0.083186
C  -4.261616  -1.226943  -2.195839
C  -4.852089  -0.893301  -0.906790
C  -4.311604  -1.554229  0.208898
C  -4.078468  0.013915  -2.943779
C  -3.314258  2.029883  -1.815074
C  -4.348254  1.111063  -2.016470
C  -3.144571  2.631154  -0.569112
C  -4.040097  2.404941  0.481291
C  -4.627200  0.429093  1.576875
C  -4.897595  1.227285  0.388132
C  -4.074672  -0.842169  1.393239
C  -5.029031  0.557414  -0.846488
