100
# Created by libgraph from Fullerene (http://tinyurl.com/fullerenes)
C  4.941848  -0.478881  1.155999
C  5.173472  0.346004  -0.018456
C  4.952633  -0.499307  -1.181615
C  4.867224  -1.891458  -0.732539
C  4.865571  -1.881231  0.731136
C  4.037078  -2.787302  -1.436198
C  3.255723  -3.788154  -0.702306
C  3.250337  -3.782199  0.712338
C  4.048010  -2.786743  1.437301
C  4.003658  -0.011123  -2.081461
C  3.054689  -0.885143  -2.621091
C  3.201661  -2.279182  -2.525334
C  4.597932  1.635895  -0.008796
C  4.274478  2.263477  -1.225063
C  3.952575  1.373631  -2.335832
C  4.005829  0.002561  2.074014
C  3.950213  1.381963  2.344084
C  4.278226  2.250447  1.216419
C  3.228558  -2.266563  2.530298
C  3.066581  -0.872346  2.623020
C  1.984986  -3.941885  1.440011
C  2.009442  -3.069922  2.607816
C  1.989591  -3.973244  -1.417107
C  0.801579  -3.919172  -0.681062
C  0.805428  -3.913456  0.695963
C  1.991421  -3.102362  -2.586895
C  1.882532  -0.347589  -3.147120
C  0.807217  -1.163688  -3.448500
C  0.798676  -2.408880  -2.856449
C  2.766673  1.900337  -3.003689
C  1.710382  1.017771  -3.222207
C  3.307182  3.362657  -1.233616
C  2.396568  3.156643  -2.357262
C  3.330201  3.367024  1.208745
C  2.750436  3.773316  -0.007963
C  2.762867  1.933102  2.993749
C  2.407674  3.179121  2.323611
C  1.897712  -0.327606  3.155526
C  1.722986  1.038588  3.226843
C  0.807939  -2.381308  2.858723
C  0.821542  -1.144571  3.458124
C  -0.425890  -3.674786  1.298293
C  -0.419095  -2.815191  2.377765
C  -0.432817  -3.700296  -1.294284
C  -1.630506  -4.160220  -0.736674
C  -1.611744  -4.147415  0.720928
C  -0.428210  -2.835636  -2.368131
C  -0.292237  -0.681038  -4.179118
C  -1.568343  -1.343427  -3.902030
C  -1.611141  -2.264849  -2.839585
C  0.410050  1.473284  -3.377576
C  -0.524248  0.761421  -4.141384
C  1.037740  3.400575  -2.080810
C  0.043490  2.561405  -2.605265
C  1.556380  4.528511  0.004178
C  0.707265  4.413486  -1.175863
C  1.041347  3.414556  2.065312
C  0.686728  4.426574  1.170907
C  0.418812  1.481348  3.365727
C  0.050463  2.574054  2.597468
C  -0.292102  -0.694701  4.187246
C  -0.500102  0.749841  4.132791
C  -1.608063  -2.257393  2.854335
C  -1.580139  -1.336012  3.915556
C  -2.855027  -3.538417  1.192099
C  -2.799043  -2.529687  2.171247
C  -2.875906  -3.531403  -1.171383
C  -3.670790  -3.234589  0.017824
C  -2.809186  -2.532840  -2.161231
C  -2.611829  -0.320902  -3.936938
C  -3.786960  -0.508192  -3.181938
C  -3.931121  -1.730884  -2.393286
C  -1.940894  0.976064  -3.858564
C  -1.299126  2.708566  -2.256685
C  -2.252342  1.819106  -2.778070
C  -0.685056  4.518646  -0.749976
C  -1.648743  3.648668  -1.285966
C  -0.694312  4.507194  0.703180
C  -1.292305  2.717331  2.245641
C  -1.650307  3.652034  1.272243
C  -1.913457  0.989273  3.852431
C  -2.241293  1.825450  2.770634
C  -2.605538  -0.298613  3.943457
C  -3.924267  -1.724642  2.384341
C  -3.778661  -0.510718  3.191559
C  -4.406418  -2.032160  0.007519
C  -4.744122  -1.404661  1.220610
C  -4.740107  -1.422036  -1.216629
C  -4.304247  0.587158  -2.364986
C  -4.984915  0.016366  -1.208780
C  -3.489254  1.700538  -2.135034
C  -2.928716  3.638607  -0.712751
C  -3.887621  2.644096  -1.180895
C  -2.945032  3.643384  0.739760
C  -3.485587  1.701983  2.138883
C  -3.896216  2.628139  1.173212
C  -4.299553  0.593749  2.393325
C  -4.978253  0.035387  1.227944
C  -4.867968  0.719215  0.003879
C  -4.562795  2.095478  -0.009624
