100
# Created by libgraph from Fullerene (http://tinyurl.com/fullerenes)
C  2.366750  0.926224  3.844549
C  1.976830  2.260298  3.405223
C  0.620000  2.501120  3.876960
C  0.224073  1.383060  4.737045
C  1.318737  0.406859  4.730156
C  -1.118109  0.944023  4.707823
C  -1.416143  -0.491983  4.708363
C  -0.364337  -1.434506  4.702040
C  1.028120  -0.974889  4.733273
C  -0.263701  2.917331  2.873460
C  -1.566138  2.456237  2.831850
C  -2.075252  1.592172  3.804026
C  2.230123  2.566244  2.053111
C  1.491121  3.537888  1.397686
C  0.177097  3.695322  1.799498
C  2.869740  0.072142  2.859220
C  3.523879  0.578405  1.741870
C  3.112591  1.820131  1.282383
C  1.809120  -1.861325  3.866964
C  2.622888  -1.287334  2.882147
C  -0.427544  -2.586668  3.796247
C  0.927851  -2.906200  3.365494
C  -2.563935  -0.708440  3.823627
C  -2.461980  -1.681616  2.821849
C  -1.409384  -2.578048  2.803280
C  -3.025580  0.586704  3.344787
C  -2.302224  2.765349  1.690835
C  -3.162722  1.787605  1.212930
C  -3.390718  0.656002  1.987484
C  -0.705018  4.491417  1.060394
C  -2.063022  3.956887  0.988596
C  2.023769  4.209144  0.294458
C  1.061688  4.776764  -0.651168
C  -0.301620  4.904308  -0.283871
C  3.449993  2.243530  -0.004296
C  3.061802  3.511483  -0.470805
C  4.448115  -0.209709  1.039674
C  4.695090  0.172785  -0.346636
C  4.061066  1.322406  -0.857427
C  3.098021  -2.039982  1.802347
C  4.234007  -1.654743  1.083258
C  1.082829  -3.251603  2.008695
C  2.302992  -3.087032  1.372320
C  -1.282780  -3.371478  1.666610
C  0.004446  -3.626444  1.217094
C  -3.336613  -1.693235  1.729462
C  -3.561791  -2.855752  0.985569
C  -2.417544  -3.763033  0.940313
C  -3.843219  -0.472730  1.317583
C  -3.665628  1.865021  -0.087463
C  -4.558812  0.895247  -0.573492
C  -4.662162  -0.350010  0.192140
C  -2.487066  3.977422  -0.407264
C  -3.153598  2.852824  -0.931298
C  -1.349950  4.437374  -1.198002
C  1.366388  4.176435  -1.944428
C  0.378188  3.379019  -2.527537
C  -0.977627  3.626902  -2.279065
C  2.728133  3.636225  -1.884687
C  3.935149  1.479364  -2.242503
C  3.106547  2.580920  -2.745647
C  4.533421  -1.027321  -1.161482
C  3.659099  -0.923004  -2.253276
C  3.606734  0.275190  -2.993112
C  4.403838  -2.185155  -0.269509
C  2.630508  -3.861568  0.256987
C  3.615422  -3.294438  -0.666098
C  0.218782  -4.105729  -0.076610
C  1.516651  -4.395442  -0.532432
C  -2.192012  -4.143143  -0.450240
C  -0.873246  -4.158862  -0.944908
C  -4.089846  -2.713842  -0.371031
C  -3.141002  -3.389707  -1.263626
C  -4.652166  -1.469471  -0.751561
C  -4.468656  0.541423  -1.985184
C  -4.256531  -0.908695  -2.037419
C  -3.195197  2.663510  -2.317553
C  -3.724186  1.395179  -2.831215
C  -1.971498  2.980244  -3.041441
C  0.730541  2.259986  -3.278308
C  -0.278440  1.368213  -3.631277
C  -1.601538  1.792970  -3.799933
C  2.071054  1.976930  -3.577893
C  2.402984  0.562909  -3.761555
C  2.768795  -1.969208  -2.530220
C  1.634259  -1.699061  -3.289960
C  1.371319  -0.373208  -3.622608
C  2.959943  -3.233553  -1.966694
C  1.809925  -4.142906  -1.938213
C  -0.656710  -4.103087  -2.326607
C  0.717660  -3.926312  -2.809196
C  -2.600528  -2.665442  -2.336010
C  -1.526457  -3.203806  -3.072220
C  -3.060133  -1.368114  -2.593727
C  -2.664988  0.798878  -3.638554
C  -2.251817  -0.504511  -3.326516
C  0.042138  0.019711  -3.679993
C  -0.966224  -0.930315  -3.647644
C  0.721891  -2.711973  -3.618882
C  -0.666717  -2.289103  -3.811386
