100
# Created by libgraph from Fullerene (http://tinyurl.com/fullerenes)
C  4.819483  -1.388491  1.138728
C  4.597771  -2.311152  0.041122
C  4.944078  -1.624500  -1.200462
C  5.395906  -0.272269  -0.856339
C  5.360127  -0.138811  0.602319
C  5.044370  0.816783  -1.673242
C  4.698918  2.105209  -1.064947
C  4.713413  2.253272  0.344117
C  5.001185  1.090661  1.190533
C  4.145057  -1.836596  -2.338934
C  3.770709  -0.696210  -3.185736
C  4.175390  0.610033  -2.836331
C  3.379530  -2.998789  0.144519
C  2.530110  -3.085557  -0.959913
C  2.985295  -2.730011  -2.246867
C  3.785185  -1.335505  2.080387
C  3.178867  -2.529396  2.506766
C  2.974200  -3.464831  1.410127
C  4.026860  1.076358  2.283240
C  3.275943  -0.099591  2.470219
C  3.658523  3.024275  1.015503
C  3.294807  2.340640  2.251204
C  3.585264  2.667953  -1.827846
C  2.507910  3.188086  -1.110772
C  2.571566  3.428557  0.239692
C  3.201197  1.704775  -2.858059
C  2.392666  -0.907040  -3.623822
C  1.438974  0.093417  -3.338084
C  1.839026  1.364361  -2.935488
C  2.001912  -2.252946  -3.213843
C  1.178277  -3.398806  -0.742360
C  0.257575  -3.114237  -1.734684
C  0.678344  -2.376173  -2.809989
C  1.630745  -4.027568  1.549540
C  0.724737  -3.836170  0.499708
C  1.921514  -2.472888  3.248288
C  1.140239  -3.646507  2.871719
C  1.955049  -0.057764  2.929734
C  1.263888  -1.240820  3.229330
C  1.905485  2.293991  2.456512
C  1.282591  1.158675  2.923433
C  1.382948  3.875197  0.815058
C  1.065510  3.314879  2.028398
C  1.248038  3.316554  -1.678830
C  0.354504  4.331740  -1.308197
C  0.488562  4.682476  0.100786
C  0.857231  2.242881  -2.445266
C  0.071338  -0.219391  -3.286009
C  -0.902578  0.715477  -2.999538
C  -0.503603  1.964271  -2.549787
C  -0.289014  -1.537530  -3.280876
C  -1.110844  -3.379839  -1.584565
C  -2.007597  -3.090216  -2.633971
C  -1.585223  -1.996917  -3.503453
C  -0.657142  -3.948553  0.722560
C  -1.572302  -3.780303  -0.330465
C  -0.254613  -3.606800  3.100508
C  -1.117638  -4.097387  2.034010
C  -0.128812  -1.195109  3.364153
C  -0.879549  -2.364164  3.553481
C  -0.081909  1.224199  3.188838
C  -0.774078  0.022902  3.158272
C  -0.123292  3.625256  2.690195
C  -0.746290  2.462885  3.320213
C  -0.854678  4.867133  0.666481
C  -1.155429  4.362169  1.954750
C  -1.069562  4.121459  -1.562412
C  -1.811288  4.667866  -0.427967
C  -1.453119  2.853976  -2.034419
C  -2.244021  0.314940  -2.977706
C  -3.172788  1.150692  -2.355175
C  -2.769610  2.404990  -1.865126
C  -2.613507  -0.962060  -3.451589
C  -3.417617  -2.880607  -2.316097
C  -3.808984  -1.575038  -2.869192
C  -2.947138  -3.892233  -0.084935
C  -3.879762  -3.282922  -1.046729
C  -2.460894  -3.590793  2.298412
C  -3.412321  -3.556755  1.254086
C  -2.267369  -2.367940  3.070949
C  -2.092647  0.036540  2.748461
C  -2.738544  -1.172003  2.507738
C  -2.158235  2.458595  2.944070
C  -2.690472  1.258570  2.443830
C  -2.434864  3.687868  2.195969
C  -3.087675  4.131734  -0.167180
C  -3.414667  3.668933  1.183550
C  -3.663728  3.151894  -1.091757
C  -4.470115  0.681688  -2.114138
C  -5.102310  1.185210  -0.902486
C  -4.677162  2.415206  -0.356609
C  -4.717814  -0.762442  -2.165716
C  -4.760875  -2.392599  -0.288618
C  -5.181683  -1.162939  -0.835862
C  -4.266732  -2.385948  1.082884
C  -3.781574  -1.176809  1.582352
C  -3.753686  1.258683  1.542494
C  -4.254104  0.037868  1.069401
C  -4.235104  2.466611  1.029620
C  -5.146254  0.041536  -0.005874
