100
# Created by libgraph from Fullerene (http://tinyurl.com/fullerenes)
C  3.294957  -1.632809  2.931910
C  3.326961  -2.746704  1.994279
C  4.203112  -2.372666  0.899133
C  4.831166  -1.091711  1.224030
C  4.313209  -0.658854  2.524915
C  5.026327  -0.154296  0.191852
C  4.839856  1.274350  0.462323
C  4.387915  1.704697  1.729697
C  4.107542  0.716189  2.775794
C  3.602488  -2.552851  -0.351889
C  3.608542  -1.516670  -1.285695
C  4.491248  -0.433908  -1.144656
C  2.096709  -3.327030  1.613760
C  2.073135  -4.206199  0.525404
C  2.884208  -3.736799  -0.586651
C  2.036947  -1.138763  3.264542
C  0.912295  -1.948892  3.198953
C  0.895879  -2.928459  2.216219
C  2.876837  1.127131  3.454803
C  1.834488  0.198187  3.538343
C  3.357115  2.745734  1.821089
C  2.484503  2.437055  2.946391
C  4.261481  1.878738  -0.737679
C  3.139160  2.704259  -0.599092
C  2.711074  3.133124  0.643166
C  4.115266  0.839091  -1.748213
C  2.640223  -1.519293  -2.298861
C  2.315068  -0.316623  -2.924251
C  2.925471  0.854134  -2.489895
C  2.082610  -3.827437  -1.802102
C  1.923619  -2.685363  -2.593497
C  0.791147  -4.643892  -0.015955
C  0.844202  -4.523834  -1.468808
C  -0.335838  -3.384232  1.742104
C  -0.382011  -4.193607  0.600862
C  -0.203988  -1.671408  4.003655
C  -1.476385  -2.245432  3.575311
C  -1.516632  -2.916185  2.340377
C  0.517576  0.597490  3.755990
C  -0.429942  -0.266005  4.324982
C  1.114925  2.650643  2.691070
C  0.145237  1.814285  3.217376
C  1.505216  3.833467  0.684652
C  0.688968  3.606357  1.776556
C  2.327182  3.006662  -1.695271
C  1.522105  4.151829  -1.720226
C  1.085959  4.608058  -0.403076
C  2.232731  2.044092  -2.685266
C  1.289816  -0.260596  -3.876946
C  0.808517  0.977641  -4.346679
C  1.374739  2.195771  -3.773977
C  0.956503  -2.698301  -3.606646
C  0.633372  -1.437010  -4.266776
C  -0.348748  -4.110394  -2.100327
C  -0.293870  -3.393530  -3.314900
C  -1.605580  -4.468601  -0.012943
C  -1.590581  -4.334446  -1.465598
C  -2.723416  -3.029317  1.641500
C  -2.812913  -3.819392  0.484928
C  -2.519445  -1.250554  3.841251
C  -3.685724  -1.236330  3.049454
C  -3.832676  -2.258830  2.019431
C  -1.844147  0.020270  4.089395
C  -1.198837  2.123476  3.044732
C  -2.127470  1.098585  3.235581
C  -0.572756  4.199129  1.877068
C  -1.583246  3.387366  2.562906
C  -0.340684  4.928635  -0.476898
C  -1.169759  4.742868  0.657699
C  0.360166  4.153530  -2.605699
C  -0.808983  4.406035  -1.757261
C  0.291143  3.170243  -3.622896
C  -0.637371  1.117828  -4.348141
C  -0.953806  2.420489  -3.762467
C  -0.813628  -1.294716  -4.256859
C  -1.286645  -0.031712  -3.867515
C  -1.387968  -2.478175  -3.625478
C  -2.674406  -3.429153  -1.826707
C  -2.329110  -2.318024  -2.603864
C  -3.497220  -3.209505  -0.643420
C  -4.531078  -1.660286  0.891699
C  -3.975669  -1.923565  -0.367004
C  -4.161925  0.024669  2.470730
C  -4.871657  -0.282539  1.233235
C  -3.285886  1.113482  2.460331
C  -2.790906  3.395443  1.748021
C  -3.500140  2.189231  1.590700
C  -2.474692  4.093001  0.507193
C  -1.810526  3.431443  -1.725528
C  -2.737637  3.398445  -0.680232
C  -1.839040  2.417908  -2.680169
C  -2.301567  0.082822  -2.911576
C  -2.700760  1.342416  -2.477601
C  -2.834321  -1.048401  -2.294478
C  -3.790930  -0.888924  -1.283832
C  -4.904135  0.702223  0.223360
C  -4.476680  0.324620  -1.122293
C  -4.347946  2.029849  0.486302
C  -3.881556  2.585127  -0.775221
C  -3.888079  1.504110  -1.754042
