100
# Created by libgraph from Fullerene (http://tinyurl.com/fullerenes)
C  4.242090  -0.831454  2.186696
C  5.026251  -0.271854  1.096912
C  4.884555  -1.211437  -0.005485
C  4.520336  -2.510336  0.564515
C  4.147614  -2.275655  1.960418
C  3.780326  -3.412933  -0.224156
C  2.729363  -4.229829  0.393240
C  2.383947  -4.028169  1.748487
C  3.084031  -3.001506  2.530513
C  4.182131  -0.742736  -1.119876
C  3.357945  -1.609956  -1.834532
C  3.297148  -2.981673  -1.536530
C  4.907334  1.110617  0.846593
C  4.720884  1.542857  -0.536637
C  4.221716  0.619326  -1.461874
C  3.074385  -0.155713  2.555037
C  2.941357  1.212284  2.276128
C  3.980408  1.906370  1.644498
C  2.078552  -2.257652  3.286098
C  1.998819  -0.862528  3.096458
C  0.970272  -3.990647  2.143765
C  0.817793  -2.984980  3.186969
C  1.659248  -4.398783  -0.593753
C  0.336269  -4.153825  -0.198376
C  0.009853  -3.960173  1.128271
C  2.043389  -3.685607  -1.803745
C  2.496915  -1.059305  -2.779959
C  1.278008  -1.698761  -2.982246
C  1.029571  -2.932552  -2.412131
C  3.684645  1.078679  -2.678554
C  2.798052  0.168206  -3.396113
C  4.069979  2.850407  -0.512007
C  3.133563  3.171986  -1.517757
C  3.084256  2.413808  -2.706453
C  3.634091  3.086054  0.858312
C  1.723024  1.862083  2.522472
C  1.495503  3.136543  2.013684
C  2.347754  3.612311  1.019629
C  0.794424  -0.182144  3.325778
C  0.686264  1.187123  3.155725
C  -0.336707  -2.197234  3.080058
C  -0.351545  -0.911469  3.548194
C  -1.295403  -3.542456  1.381720
C  -1.450670  -2.581064  2.359795
C  -0.681509  -3.934977  -1.135393
C  -2.027667  -4.174986  -0.836328
C  -2.357701  -3.954430  0.567369
C  -0.309725  -3.296373  -2.302196
C  0.241466  -1.017277  -3.600065
C  -0.969437  -1.631688  -3.948428
C  -1.247446  -2.889737  -3.259923
C  1.648747  0.936055  -3.869084
C  0.390144  0.349919  -3.672897
C  1.807038  2.317544  -3.411729
C  2.190242  4.200914  -1.288451
C  0.932595  4.109629  -2.018206
C  0.721774  2.943663  -2.779237
C  1.863489  4.534432  0.094114
C  0.367656  3.868625  2.407306
C  -0.256266  4.680934  1.363684
C  0.454692  4.922733  0.161544
C  -0.517925  1.832256  3.474226
C  -0.704237  3.180706  3.133073
C  -1.530544  -0.356601  4.047476
C  -1.599864  1.101342  4.011719
C  -2.647035  -1.874569  2.499647
C  -2.781609  -0.894377  3.502209
C  -3.572872  -3.144246  0.632921
C  -3.637576  -2.062991  1.533573
C  -3.048169  -3.515674  -1.652887
C  -3.954313  -2.816704  -0.737828
C  -2.659559  -2.891988  -2.859490
C  -2.175155  -0.808407  -3.875444
C  -3.203036  -1.568238  -3.170829
C  -0.734162  1.098249  -3.382784
C  -2.014838  0.537699  -3.492476
C  -0.544130  2.339205  -2.806213
C  -0.141844  4.537035  -1.116466
C  -1.278759  3.729622  -1.057263
C  -1.597097  2.896368  -2.109784
C  -1.647062  4.237101  1.270284
C  -2.054563  3.626833  0.084725
C  -1.967355  3.490710  2.479936
C  -2.888100  1.454905  3.429969
C  -2.843772  2.391441  2.386989
C  -3.675500  0.230555  3.244897
C  -4.643310  -1.102731  1.372094
C  -4.573436  0.130607  2.159402
C  -4.305900  -1.479162  -0.995369
C  -4.986426  -0.755242  -0.000586
C  -3.916363  -0.855120  -2.189673
C  -3.135260  1.283851  -3.089421
C  -4.161877  0.516512  -2.390371
C  -2.926784  2.524183  -2.344487
C  -3.179288  2.793654  0.041657
C  -3.806706  2.508878  -1.181439
C  -3.578649  2.160875  1.217597
C  -4.628380  1.235441  1.208673
C  -5.065697  0.699707  -0.084065
C  -4.658676  1.327117  -1.276055
