100
# Created by libgraph from Fullerene (http://tinyurl.com/fullerenes)
C  4.683926  -0.537854  1.570631
C  5.252624  -0.000254  0.344852
C  4.939516  -0.980012  -0.684927
C  4.740279  -2.268521  -0.018678
C  4.589582  -1.991617  1.410861
C  3.925118  -3.231930  -0.643063
C  3.030247  -4.066111  0.167195
C  2.883595  -3.807565  1.549101
C  3.649165  -2.718567  2.167359
C  4.019519  -0.577209  -1.658622
C  3.133976  -1.508795  -2.201352
C  3.211227  -2.872342  -1.868761
C  5.054507  1.371604  0.084491
C  4.540304  1.752783  -1.228199
C  3.914062  0.776973  -2.017456
C  3.581175  0.132048  2.108941
C  3.412324  1.504044  1.859620
C  4.322170  2.185181  1.048835
C  2.736456  -1.966797  3.025699
C  2.594974  -0.585215  2.791398
C  1.544868  -3.799308  2.153286
C  1.495750  -2.728897  3.141037
C  1.834578  -4.341632  -0.633939
C  0.575424  -4.146044  -0.049208
C  0.443896  -3.879977  1.297037
C  1.981506  -3.661555  -1.913047
C  2.088715  -1.038986  -2.995526
C  0.904596  -1.768363  -3.001408
C  0.837761  -2.998575  -2.377258
C  3.107523  1.181599  -3.099308
C  2.188306  0.195836  -3.656497
C  3.800454  3.003477  -1.068655
C  2.571485  3.114961  -1.740564
C  2.385484  2.443701  -2.961365
C  3.846819  3.370981  0.346707
C  2.271663  2.172752  2.320613
C  2.089346  3.545027  2.085752
C  2.775124  4.089084  0.917641
C  1.405446  0.071543  3.123892
C  1.250473  1.425696  2.899829
C  0.303706  -1.985924  3.147169
C  0.304414  -0.665234  3.517230
C  -0.828855  -3.501707  1.717933
C  -0.886950  -2.468010  2.631005
C  -0.586617  -4.044190  -0.823550
C  -1.851896  -4.341927  -0.306989
C  -1.976564  -4.030185  1.112435
C  -0.438922  -3.448649  -2.058961
C  -0.263530  -1.188737  -3.476134
C  -1.448390  -1.918197  -3.650510
C  -1.530457  -3.159639  -2.885426
C  0.921864  0.869318  -3.942906
C  -0.253041  0.185976  -3.593181
C  1.023788  2.241438  -3.455037
C  1.509667  3.812377  -1.146832
C  0.220806  3.685548  -1.667980
C  -0.015607  2.715825  -2.640939
C  1.722115  4.546973  0.023849
C  0.716414  4.064250  2.070256
C  0.547703  4.839867  0.845225
C  -0.002406  1.989953  3.103242
C  -0.289066  3.146635  2.393266
C  -0.834997  -0.093273  4.098814
C  -0.983082  1.341764  3.877049
C  -2.087290  -1.802093  2.890445
C  -2.121634  -0.731448  3.802402
C  -3.216161  -3.282316  1.311866
C  -3.208151  -2.130711  2.122842
C  -3.026589  -3.805299  -0.996912
C  -3.835241  -3.101063  0.001830
C  -2.867060  -3.244491  -2.284304
C  -2.706171  -1.200014  -3.466833
C  -3.563969  -1.995118  -2.595892
C  -1.409028  0.849992  -3.206262
C  -2.634440  0.175420  -3.177198
C  -1.283004  2.134112  -2.695834
C  -0.834756  4.443937  -1.142795
C  -2.192978  3.941408  -1.364502
C  -2.379195  2.771070  -2.116332
C  -0.735882  4.862352  0.251570
C  -1.577054  3.274230  1.891795
C  -1.873290  4.244168  0.936862
C  -2.358027  1.578891  3.443504
C  -2.530031  2.322520  2.264800
C  -3.103260  0.326181  3.577916
C  -4.295255  -1.249187  2.061223
C  -4.179936  0.061083  2.705249
C  -4.337302  -1.819626  -0.288805
C  -4.905782  -1.065452  0.751372
C  -4.200884  -1.271102  -1.571982
C  -3.781286  0.841868  -2.728960
C  -4.619255  0.047538  -1.836060
C  -3.653127  2.177247  -2.150017
C  -2.857269  3.882029  -0.072051
C  -3.639026  2.732008  0.162748
C  -4.383674  2.195570  -0.893551
C  -3.586919  2.057417  1.390181
C  -4.520765  1.058918  1.693373
C  -5.147002  0.362174  0.568674
C  -5.043371  0.902373  -0.726337
