100
# Created by libgraph from Fullerene (http://tinyurl.com/fullerenes)
C  4.669277  -0.401444  1.632005
C  5.257818  -0.022173  0.357882
C  4.936796  -1.113257  -0.550372
C  4.723556  -2.311520  0.263369
C  4.558452  -1.862619  1.646965
C  3.909700  -3.339710  -0.249864
C  3.003524  -4.068102  0.645832
C  2.836109  -3.636572  1.982264
C  3.599295  -2.481841  2.471834
C  4.021224  -0.820024  -1.566520
C  3.133188  -1.806260  -2.001007
C  3.208419  -3.125149  -1.516292
C  5.081434  1.311741  -0.063795
C  4.568899  1.540939  -1.411564
C  3.923947  0.486535  -2.076738
C  3.569713  0.342419  2.071036
C  3.429799  1.679174  1.666651
C  4.362309  2.245391  0.795968
C  2.679317  -1.621043  3.212677
C  2.559602  -0.275209  2.811219
C  1.488108  -3.545845  2.558564
C  1.428506  -2.350954  3.393653
C  1.820638  -4.447418  -0.132601
C  0.552610  -4.184596  0.405622
C  0.402591  -3.738102  1.700070
C  1.981303  -3.922325  -1.481538
C  2.086943  -1.427094  -2.840990
C  0.905987  -2.160498  -2.768390
C  0.839495  -3.322170  -2.027642
C  3.109216  0.772620  -3.189582
C  2.178615  -0.263397  -3.625449
C  3.853620  2.816901  -1.400756
C  2.618682  2.868506  -2.067714
C  2.398110  2.049882  -3.190312
C  3.917968  3.352614  -0.039810
C  2.298327  2.418319  2.034756
C  2.160073  3.762842  1.660833
C  2.866956  4.159934  0.446569
C  1.373058  0.433877  3.036842
C  1.247296  1.761928  2.668207
C  0.249273  -1.599419  3.269630
C  0.252119  -0.242043  3.476792
C  -0.872721  -3.291326  2.033869
C  -0.926684  -2.127840  2.772119
C  -0.602463  -4.190527  -0.386499
C  -1.871662  -4.432707  0.149697
C  -2.021178  -3.893080  1.494735
C  -0.442151  -3.739129  -1.678760
C  -0.265735  -1.625048  -3.278305
C  -1.456827  -2.355936  -3.389840
C  -1.525732  -3.542041  -2.543437
C  0.905107  0.381561  -3.942779
C  -0.248093  -0.263876  -3.474957
C  1.021073  1.799144  -3.613494
C  1.580818  3.658319  -1.550817
C  0.280463  3.475518  -2.016335
C  0.020222  2.364596  -2.810112
C  1.827751  4.539010  -0.495614
C  0.804956  4.322774  1.584631
C  0.668056  4.970504  0.284580
C  0.005426  2.379768  2.798786
C  -0.244677  3.493782  2.005692
C  -0.899344  0.405894  3.944668
C  -1.000868  1.823468  3.607067
C  -2.106644  -1.393855  2.849037
C  -2.181167  -0.227984  3.629152
C  -3.241387  -3.086531  1.526742
C  -3.151381  -1.766303  2.006371
C  -3.049007  -4.042346  -0.630690
C  -3.946371  -3.300496  0.262491
C  -2.875678  -3.617635  -1.968458
C  -2.699238  -1.611011  -3.208446
C  -3.627727  -2.458011  -2.462640
C  -1.367739  0.424171  -3.037956
C  -2.562815  -0.267043  -2.813408
C  -1.222496  1.752540  -2.672655
C  -0.759331  4.319215  -1.599907
C  -2.118111  3.769703  -1.672718
C  -2.265927  2.422917  -2.039952
C  -0.616458  4.974300  -0.304179
C  -1.544488  3.683221  1.538064
C  -1.780873  4.558943  0.477771
C  -2.375697  2.085254  3.183375
C  -2.587504  2.903043  2.057587
C  -3.100483  0.815438  3.188748
C  -4.031848  -0.773307  1.569536
C  -3.918182  0.533644  2.077150
C  -4.749716  -2.266689  -0.254493
C  -4.950127  -1.063380  0.554847
C  -4.580312  -1.825267  -1.639914
C  -3.566593  0.363728  -2.072853
C  -4.675045  -0.363123  -1.630507
C  -3.407793  1.699691  -1.673266
C  -2.822321  4.182385  -0.462702
C  -3.880941  3.388096  0.027076
C  -4.334384  2.281799  -0.804577
C  -3.823463  2.858435  1.391001
C  -4.552185  1.590251  1.406194
C  -5.258542  0.027669  -0.357691
C  -5.065633  1.360869  0.058671
