100
# Created by libgraph from Fullerene (http://tinyurl.com/fullerenes)
C  4.664491  -2.037071  0.295195
C  4.861007  -1.380212  -0.987060
C  5.101233  0.030148  -0.715433
C  5.324340  0.187971  0.721060
C  4.992027  -1.086396  1.360421
C  4.962404  1.405265  1.327047
C  4.234757  1.396322  2.595891
C  3.850392  0.169622  3.181343
C  4.254805  -1.097440  2.559006
C  4.269482  0.936470  -1.381700
C  3.830518  2.094600  -0.721934
C  4.383857  2.467971  0.506229
C  3.956119  -1.731240  -2.010204
C  3.626286  -0.788942  -3.006372
C  3.818009  0.623858  -2.675209
C  3.518803  -2.829211  0.407377
C  3.142653  -3.632838  -0.677854
C  3.322512  -2.995525  -1.978558
C  3.143546  -2.044183  2.685139
C  2.702380  -2.728407  1.532972
C  2.479016  0.002119  3.659019
C  2.104482  -1.404096  3.482187
C  3.263437  2.493368  2.538072
C  1.911551  2.184291  2.695627
C  1.538447  0.962466  3.258968
C  3.593857  3.322837  1.383871
C  2.765205  2.830444  -1.247101
C  2.329638  4.014566  -0.635171
C  2.594820  4.133082  0.796126
C  2.675674  1.373967  -3.187514
C  2.065594  2.305146  -2.327878
C  2.340150  -0.917556  -3.684426
C  1.781353  0.428365  -3.843766
C  2.065309  -3.126896  -2.709427
C  1.505449  -1.943109  -3.206863
C  1.830999  -4.284153  -0.680671
C  1.192439  -4.035719  -1.961868
C  1.389131  -3.214490  1.437424
C  0.994692  -4.082200  0.423391
C  0.783411  -1.614298  3.063111
C  0.423269  -2.674545  2.263814
C  0.187742  0.638384  3.264433
C  -0.189791  -0.669193  3.266494
C  0.917615  3.032274  2.173163
C  -0.425070  2.651500  2.274101
C  -0.784808  1.586324  3.067589
C  1.284002  4.162151  1.437065
C  0.946095  4.446746  -0.857149
C  0.310451  4.612134  0.440376
C  0.713372  2.637049  -2.455128
C  0.175020  3.739549  -1.794803
C  0.418600  0.561191  -3.561032
C  -0.121022  1.751847  -3.117158
C  0.126866  -1.726486  -3.121468
C  -0.413009  -0.534472  -3.562903
C  -0.172208  -3.723942  -1.813253
C  -0.708041  -2.615031  -2.464673
C  -0.310316  -4.615586  0.419601
C  -0.943933  -4.439414  -0.877884
C  -0.923767  -3.047913  2.163159
C  -1.285998  -4.171097  1.418602
C  -1.543128  -0.980973  3.252295
C  -1.916301  -2.200237  2.686866
C  -2.108193  1.388971  3.484501
C  -2.483111  -0.017220  3.655597
C  -1.394642  3.200281  1.452947
C  -2.707590  2.723187  1.546325
C  -3.148971  2.033421  2.691873
C  -0.992750  4.074255  0.447246
C  -1.190393  4.044915  -1.944848
C  -1.827189  4.283989  -0.660499
C  -1.501178  1.961396  -3.201510
C  -2.063163  3.139817  -2.697817
C  -1.776168  -0.410703  -3.847277
C  -2.335156  0.934246  -3.682542
C  -2.062137  -2.293234  -2.342113
C  -2.672047  -1.359528  -3.196272
C  -2.327503  -4.008447  -0.653798
C  -2.760291  -2.820601  -1.261205
C  -2.595819  -4.135746  0.776187
C  -3.268852  -2.503593  2.526821
C  -3.595979  -3.327935  1.366966
C  -3.854694  -0.181917  3.176872
C  -4.238793  -1.405906  2.586279
C  -4.259497  1.087152  2.559469
C  -3.521879  2.826382  0.418251
C  -4.667423  2.036323  0.298739
C  -4.995605  1.080918  1.359767
C  -3.139969  3.634607  -0.663008
C  -3.319508  3.004203  -1.967276
C  -3.622123  0.802582  -3.005671
C  -3.953400  1.741090  -2.005381
C  -3.814469  -0.611463  -2.681416
C  -3.828124  -2.088867  -0.734710
C  -4.267371  -0.928567  -1.390235
C  -4.383439  -2.468991  0.491377
C  -4.964108  -1.410352  1.316103
C  -5.326117  -0.190989  0.714760
C  -4.861046  1.384350  -0.986447
C  -5.101216  -0.027180  -0.720634
