100
# Created by libgraph from Fullerene (http://tinyurl.com/fullerenes)
C  4.701929  -0.131300  1.722455
C  5.017408  0.885828  0.732457
C  5.089661  0.211654  -0.552953
C  5.120734  -1.233918  -0.319686
C  4.911417  -1.449476  1.112423
C  4.508194  -2.086679  -1.260514
C  3.815029  -3.296690  -0.804365
C  3.639769  -3.529453  0.578501
C  4.150258  -2.552977  1.547635
C  4.205962  0.729297  -1.498620
C  3.389359  -0.138719  -2.220537
C  3.717588  -1.498533  -2.343440
C  4.281488  2.090660  0.801894
C  4.120483  2.872858  -0.360296
C  4.067425  2.121472  -1.607194
C  3.550793  0.080423  2.484942
C  3.235141  1.381020  2.911459
C  3.639176  2.453885  2.002933
C  3.096100  -2.310728  2.529358
C  2.675521  -0.982493  2.717631
C  2.345981  -4.006576  1.082175
C  2.058002  -3.319271  2.334794
C  2.689694  -3.533017  -1.712306
C  1.430930  -3.821050  -1.163466
C  1.274869  -4.072445  0.183440
C  2.657166  -2.445306  -2.680670
C  2.176732  0.351351  -2.708218
C  1.179142  -0.547057  -3.069060
C  1.390131  -1.905512  -2.930819
C  2.939845  2.628521  -2.381256
C  1.920432  1.726167  -2.698360
C  3.054902  3.872706  -0.413982
C  2.527472  3.892742  -1.778531
C  2.539833  3.416975  1.920512
C  2.142631  3.871957  0.646533
C  1.874561  1.666594  3.361426
C  1.480330  2.962635  2.816482
C  1.344998  -0.687119  3.025692
C  0.945570  0.625325  3.240872
C  0.720549  -2.908972  2.438540
C  0.378926  -1.683227  2.959500
C  -0.040203  -4.192851  0.635643
C  -0.310023  -3.634262  1.863899
C  0.257732  -3.700182  -1.918243
C  -0.905825  -4.413900  -1.611014
C  -1.055200  -4.694448  -0.187342
C  0.250094  -2.694174  -2.862491
C  -0.091359  -0.087655  -3.411004
C  -1.078065  -0.953074  -3.912163
C  -0.888746  -2.370335  -3.603925
C  0.609720  2.174079  -2.888807
C  -0.397704  1.226366  -3.084212
C  1.208903  4.362818  -1.973827
C  0.300976  3.534915  -2.760644
C  0.809196  4.238942  0.395965
C  0.434423  4.805149  -0.822519
C  0.165534  3.040355  2.335725
C  -0.171602  3.919974  1.326824
C  -0.419674  0.898077  3.166630
C  -0.812838  2.150091  2.745378
C  -0.971014  -1.425802  3.227723
C  -1.371866  -0.100004  3.356323
C  -1.592702  -3.652468  2.412005
C  -1.911576  -2.471548  3.217549
C  -2.433893  -4.379485  0.202738
C  -2.711362  -3.893042  1.502843
C  -2.180083  -3.891311  -2.102879
C  -3.043105  -3.689666  -0.934727
C  -2.164891  -2.917379  -3.129801
C  -2.469127  -0.621943  -3.625618
C  -3.097925  -1.796050  -3.035194
C  -1.715479  1.553878  -2.806330
C  -2.724372  0.602070  -2.980924
C  -1.067888  3.846342  -2.337109
C  -1.980094  2.785813  -2.216798
C  -0.978862  4.755474  -1.195174
C  -1.497602  4.354376  1.194816
C  -1.941480  4.661245  -0.162762
C  -2.167563  2.441502  2.585782
C  -2.553851  3.567368  1.844732
C  -2.720956  0.220709  3.531203
C  -3.139326  1.539508  3.047092
C  -3.292875  -2.097139  2.922757
C  -3.707080  -0.755948  3.081694
C  -3.632045  -2.768309  1.672054
C  -3.592696  -2.412628  -0.735959
C  -3.912177  -1.969042  0.556544
C  -3.755237  -1.542826  -1.822289
C  -3.973453  0.815986  -2.385391
C  -4.492536  -0.352969  -1.691436
C  -3.111446  2.895952  -1.409307
C  -4.161682  1.975262  -1.515771
C  -3.141058  3.858434  -0.401440
C  -3.621873  3.354722  0.880025
C  -4.241943  1.334553  2.115583
C  -4.233793  2.079285  0.916134
C  -4.468659  -0.105763  2.017512
C  -4.446798  -0.684777  0.742313
C  -4.896125  0.060633  -0.353662
C  -4.754976  1.513549  -0.266102
